
---------- Begin Simulation Statistics ----------
simSeconds                                   0.013071                       # Number of seconds simulated (Second)
simTicks                                  13070641500                       # Number of ticks simulated (Tick)
finalTick                                 13070641500                       # Number of ticks from beginning of simulation (restored from checkpoints and never reset) (Tick)
simFreq                                  1000000000000                       # The number of ticks per simulated second ((Tick/Second))
hostSeconds                                     15.32                       # Real time elapsed on the host (Second)
hostTickRate                                853108462                       # The number of ticks simulated per host second (ticks/s) ((Tick/Second))
hostMemory                                   17308964                       # Number of bytes of host memory used (Byte)
simInsts                                     10511512                       # Number of instructions simulated (Count)
simOps                                       42284563                       # Number of ops (including micro ops) simulated (Count)
hostInstRate                                   686073                       # Simulator instruction rate (inst/s) ((Count/Second))
hostOpRate                                    2759857                       # Simulator op (including micro ops) rate (op/s) ((Count/Second))
pim_system.clk_domain.clock                      1000                       # Clock period in ticks (Tick)
pim_system.cpu.numCycles                     19596165                       # Number of cpu cycles simulated (Cycle)
pim_system.cpu.numWorkItemsStarted                  0                       # Number of work items this cpu started (Count)
pim_system.cpu.numWorkItemsCompleted                0                       # Number of work items this cpu completed (Count)
pim_system.cpu.exec_context.thread_0.numInsts      8398210                       # Number of instructions committed (Count)
pim_system.cpu.exec_context.thread_0.numOps     16796418                       # Number of ops (including micro ops) committed (Count)
pim_system.cpu.exec_context.thread_0.numIntAluAccesses     16796418                       # Number of integer alu accesses (Count)
pim_system.cpu.exec_context.thread_0.numFpAluAccesses            0                       # Number of float alu accesses (Count)
pim_system.cpu.exec_context.thread_0.numVecAluAccesses            0                       # Number of vector alu accesses (Count)
pim_system.cpu.exec_context.thread_0.numCallsReturns            0                       # Number of times a function call or return occured (Count)
pim_system.cpu.exec_context.thread_0.numCondCtrlInsts      2799227                       # Number of instructions that are conditional controls (Count)
pim_system.cpu.exec_context.thread_0.numIntInsts     16796418                       # Number of integer instructions (Count)
pim_system.cpu.exec_context.thread_0.numFpInsts            0                       # Number of float instructions (Count)
pim_system.cpu.exec_context.thread_0.numVecInsts            0                       # Number of vector instructions (Count)
pim_system.cpu.exec_context.thread_0.numIntRegReads     33590792                       # Number of times the integer registers were read (Count)
pim_system.cpu.exec_context.thread_0.numIntRegWrites     13996669                       # Number of times the integer registers were written (Count)
pim_system.cpu.exec_context.thread_0.numFpRegReads            0                       # Number of times the floating registers were read (Count)
pim_system.cpu.exec_context.thread_0.numFpRegWrites            0                       # Number of times the floating registers were written (Count)
pim_system.cpu.exec_context.thread_0.numVecRegReads            0                       # Number of times the vector registers were read (Count)
pim_system.cpu.exec_context.thread_0.numVecRegWrites            0                       # Number of times the vector registers were written (Count)
pim_system.cpu.exec_context.thread_0.numVecPredRegReads            0                       # Number of times the predicate registers were read (Count)
pim_system.cpu.exec_context.thread_0.numVecPredRegWrites            0                       # Number of times the predicate registers were written (Count)
pim_system.cpu.exec_context.thread_0.numCCRegReads     16794852                       # Number of times the CC registers were read (Count)
pim_system.cpu.exec_context.thread_0.numCCRegWrites      5599482                       # Number of times the CC registers were written (Count)
pim_system.cpu.exec_context.thread_0.numMemRefs      2799239                       # Number of memory refs (Count)
pim_system.cpu.exec_context.thread_0.numLoadInsts      2798717                       # Number of load instructions (Count)
pim_system.cpu.exec_context.thread_0.numStoreInsts          522                       # Number of store instructions (Count)
pim_system.cpu.exec_context.thread_0.numIdleCycles            0                       # Number of idle cycles (Cycle)
pim_system.cpu.exec_context.thread_0.numBusyCycles     19596165                       # Number of busy cycles (Cycle)
pim_system.cpu.exec_context.thread_0.notIdleFraction            1                       # Percentage of non-idle cycles (Ratio)
pim_system.cpu.exec_context.thread_0.idleFraction            0                       # Percentage of idle cycles (Ratio)
pim_system.cpu.exec_context.thread_0.numBranches      2799227                       # Number of branches fetched (Count)
pim_system.cpu.exec_context.thread_0.statExecutedInstType::No_OpClass            0      0.00%      0.00% # Class of executed instruction. (Count)
pim_system.cpu.exec_context.thread_0.statExecutedInstType::IntAlu     13997179     83.33%     83.33% # Class of executed instruction. (Count)
pim_system.cpu.exec_context.thread_0.statExecutedInstType::IntMult            0      0.00%     83.33% # Class of executed instruction. (Count)
pim_system.cpu.exec_context.thread_0.statExecutedInstType::IntDiv            0      0.00%     83.33% # Class of executed instruction. (Count)
pim_system.cpu.exec_context.thread_0.statExecutedInstType::FloatAdd            0      0.00%     83.33% # Class of executed instruction. (Count)
pim_system.cpu.exec_context.thread_0.statExecutedInstType::FloatCmp            0      0.00%     83.33% # Class of executed instruction. (Count)
pim_system.cpu.exec_context.thread_0.statExecutedInstType::FloatCvt            0      0.00%     83.33% # Class of executed instruction. (Count)
pim_system.cpu.exec_context.thread_0.statExecutedInstType::FloatMult            0      0.00%     83.33% # Class of executed instruction. (Count)
pim_system.cpu.exec_context.thread_0.statExecutedInstType::FloatMultAcc            0      0.00%     83.33% # Class of executed instruction. (Count)
pim_system.cpu.exec_context.thread_0.statExecutedInstType::FloatDiv            0      0.00%     83.33% # Class of executed instruction. (Count)
pim_system.cpu.exec_context.thread_0.statExecutedInstType::FloatMisc            0      0.00%     83.33% # Class of executed instruction. (Count)
pim_system.cpu.exec_context.thread_0.statExecutedInstType::FloatSqrt            0      0.00%     83.33% # Class of executed instruction. (Count)
pim_system.cpu.exec_context.thread_0.statExecutedInstType::SimdAdd            0      0.00%     83.33% # Class of executed instruction. (Count)
pim_system.cpu.exec_context.thread_0.statExecutedInstType::SimdAddAcc            0      0.00%     83.33% # Class of executed instruction. (Count)
pim_system.cpu.exec_context.thread_0.statExecutedInstType::SimdAlu            0      0.00%     83.33% # Class of executed instruction. (Count)
pim_system.cpu.exec_context.thread_0.statExecutedInstType::SimdCmp            0      0.00%     83.33% # Class of executed instruction. (Count)
pim_system.cpu.exec_context.thread_0.statExecutedInstType::SimdCvt            0      0.00%     83.33% # Class of executed instruction. (Count)
pim_system.cpu.exec_context.thread_0.statExecutedInstType::SimdMisc            0      0.00%     83.33% # Class of executed instruction. (Count)
pim_system.cpu.exec_context.thread_0.statExecutedInstType::SimdMult            0      0.00%     83.33% # Class of executed instruction. (Count)
pim_system.cpu.exec_context.thread_0.statExecutedInstType::SimdMultAcc            0      0.00%     83.33% # Class of executed instruction. (Count)
pim_system.cpu.exec_context.thread_0.statExecutedInstType::SimdShift            0      0.00%     83.33% # Class of executed instruction. (Count)
pim_system.cpu.exec_context.thread_0.statExecutedInstType::SimdShiftAcc            0      0.00%     83.33% # Class of executed instruction. (Count)
pim_system.cpu.exec_context.thread_0.statExecutedInstType::SimdDiv            0      0.00%     83.33% # Class of executed instruction. (Count)
pim_system.cpu.exec_context.thread_0.statExecutedInstType::SimdSqrt            0      0.00%     83.33% # Class of executed instruction. (Count)
pim_system.cpu.exec_context.thread_0.statExecutedInstType::SimdFloatAdd            0      0.00%     83.33% # Class of executed instruction. (Count)
pim_system.cpu.exec_context.thread_0.statExecutedInstType::SimdFloatAlu            0      0.00%     83.33% # Class of executed instruction. (Count)
pim_system.cpu.exec_context.thread_0.statExecutedInstType::SimdFloatCmp            0      0.00%     83.33% # Class of executed instruction. (Count)
pim_system.cpu.exec_context.thread_0.statExecutedInstType::SimdFloatCvt            0      0.00%     83.33% # Class of executed instruction. (Count)
pim_system.cpu.exec_context.thread_0.statExecutedInstType::SimdFloatDiv            0      0.00%     83.33% # Class of executed instruction. (Count)
pim_system.cpu.exec_context.thread_0.statExecutedInstType::SimdFloatMisc            0      0.00%     83.33% # Class of executed instruction. (Count)
pim_system.cpu.exec_context.thread_0.statExecutedInstType::SimdFloatMult            0      0.00%     83.33% # Class of executed instruction. (Count)
pim_system.cpu.exec_context.thread_0.statExecutedInstType::SimdFloatMultAcc            0      0.00%     83.33% # Class of executed instruction. (Count)
pim_system.cpu.exec_context.thread_0.statExecutedInstType::SimdFloatSqrt            0      0.00%     83.33% # Class of executed instruction. (Count)
pim_system.cpu.exec_context.thread_0.statExecutedInstType::SimdReduceAdd            0      0.00%     83.33% # Class of executed instruction. (Count)
pim_system.cpu.exec_context.thread_0.statExecutedInstType::SimdReduceAlu            0      0.00%     83.33% # Class of executed instruction. (Count)
pim_system.cpu.exec_context.thread_0.statExecutedInstType::SimdReduceCmp            0      0.00%     83.33% # Class of executed instruction. (Count)
pim_system.cpu.exec_context.thread_0.statExecutedInstType::SimdFloatReduceAdd            0      0.00%     83.33% # Class of executed instruction. (Count)
pim_system.cpu.exec_context.thread_0.statExecutedInstType::SimdFloatReduceCmp            0      0.00%     83.33% # Class of executed instruction. (Count)
pim_system.cpu.exec_context.thread_0.statExecutedInstType::SimdAes            0      0.00%     83.33% # Class of executed instruction. (Count)
pim_system.cpu.exec_context.thread_0.statExecutedInstType::SimdAesMix            0      0.00%     83.33% # Class of executed instruction. (Count)
pim_system.cpu.exec_context.thread_0.statExecutedInstType::SimdSha1Hash            0      0.00%     83.33% # Class of executed instruction. (Count)
pim_system.cpu.exec_context.thread_0.statExecutedInstType::SimdSha1Hash2            0      0.00%     83.33% # Class of executed instruction. (Count)
pim_system.cpu.exec_context.thread_0.statExecutedInstType::SimdSha256Hash            0      0.00%     83.33% # Class of executed instruction. (Count)
pim_system.cpu.exec_context.thread_0.statExecutedInstType::SimdSha256Hash2            0      0.00%     83.33% # Class of executed instruction. (Count)
pim_system.cpu.exec_context.thread_0.statExecutedInstType::SimdShaSigma2            0      0.00%     83.33% # Class of executed instruction. (Count)
pim_system.cpu.exec_context.thread_0.statExecutedInstType::SimdShaSigma3            0      0.00%     83.33% # Class of executed instruction. (Count)
pim_system.cpu.exec_context.thread_0.statExecutedInstType::SimdPredAlu            0      0.00%     83.33% # Class of executed instruction. (Count)
pim_system.cpu.exec_context.thread_0.statExecutedInstType::MemRead      2798717     16.66%    100.00% # Class of executed instruction. (Count)
pim_system.cpu.exec_context.thread_0.statExecutedInstType::MemWrite          522      0.00%    100.00% # Class of executed instruction. (Count)
pim_system.cpu.exec_context.thread_0.statExecutedInstType::FloatMemRead            0      0.00%    100.00% # Class of executed instruction. (Count)
pim_system.cpu.exec_context.thread_0.statExecutedInstType::FloatMemWrite            0      0.00%    100.00% # Class of executed instruction. (Count)
pim_system.cpu.exec_context.thread_0.statExecutedInstType::IprAccess            0      0.00%    100.00% # Class of executed instruction. (Count)
pim_system.cpu.exec_context.thread_0.statExecutedInstType::InstPrefetch            0      0.00%    100.00% # Class of executed instruction. (Count)
pim_system.cpu.exec_context.thread_0.statExecutedInstType::total     16796418                       # Class of executed instruction. (Count)
pim_system.cpu.interrupts.clk_domain.clock        10672                       # Clock period in ticks (Tick)
pim_system.cpu.mmu.dtb.rdAccesses             2798717                       # TLB accesses on read requests (Count)
pim_system.cpu.mmu.dtb.wrAccesses                 522                       # TLB accesses on write requests (Count)
pim_system.cpu.mmu.dtb.rdMisses                     0                       # TLB misses on read requests (Count)
pim_system.cpu.mmu.dtb.wrMisses                     2                       # TLB misses on write requests (Count)
pim_system.cpu.mmu.dtb.walker.power_state.pwrStateResidencyTicks::UNDEFINED  13070641500                       # Cumulative time (in ticks) in various power states (Tick)
pim_system.cpu.mmu.itb.rdAccesses                   0                       # TLB accesses on read requests (Count)
pim_system.cpu.mmu.itb.wrAccesses            11197958                       # TLB accesses on write requests (Count)
pim_system.cpu.mmu.itb.rdMisses                     0                       # TLB misses on read requests (Count)
pim_system.cpu.mmu.itb.wrMisses                     1                       # TLB misses on write requests (Count)
pim_system.cpu.mmu.itb.walker.power_state.pwrStateResidencyTicks::UNDEFINED  13070641500                       # Cumulative time (in ticks) in various power states (Tick)
pim_system.cpu.power_state.pwrStateResidencyTicks::ON  13070641500                       # Cumulative time (in ticks) in various power states (Tick)
pim_system.cpu.thread_0.numInsts                    0                       # Number of Instructions committed (Count)
pim_system.cpu.thread_0.numOps                      0                       # Number of Ops committed (Count)
pim_system.cpu.thread_0.numMemRefs                  0                       # Number of Memory References (Count)
pim_system.cpu.workload.numSyscalls                 0                       # Number of system calls (Count)
pim_system.cpu_clk_domain.clock                   667                       # Clock period in ticks (Tick)
pim_system.cpu_voltage_domain.voltage               1                       # Voltage in Volts (Volt)
pim_system.pimbus.transDist::ReadReq         13996675                       # Transaction distribution (Count)
pim_system.pimbus.transDist::ReadResp        13996675                       # Transaction distribution (Count)
pim_system.pimbus.transDist::WriteReq             522                       # Transaction distribution (Count)
pim_system.pimbus.transDist::WriteResp            522                       # Transaction distribution (Count)
pim_system.pimbus.pktCount_pim_system.cpu.icache_port::pim_system.se_mem_ctrl.port     22395916                       # Packet count per connected requestor and responder (Count)
pim_system.pimbus.pktCount_pim_system.cpu.icache_port::total     22395916                       # Packet count per connected requestor and responder (Count)
pim_system.pimbus.pktCount_pim_system.cpu.dcache_port::pim_system.spm.port      5598470                       # Packet count per connected requestor and responder (Count)
pim_system.pimbus.pktCount_pim_system.cpu.dcache_port::pim_system.se_mem_ctrl.port            8                       # Packet count per connected requestor and responder (Count)
pim_system.pimbus.pktCount_pim_system.cpu.dcache_port::total      5598478                       # Packet count per connected requestor and responder (Count)
pim_system.pimbus.pktCount::total            27994394                       # Packet count per connected requestor and responder (Count)
pim_system.pimbus.pktSize_pim_system.cpu.icache_port::pim_system.se_mem_ctrl.port     89583664                       # Cumulative packet size per connected requestor and responder (Byte)
pim_system.pimbus.pktSize_pim_system.cpu.icache_port::total     89583664                       # Cumulative packet size per connected requestor and responder (Byte)
pim_system.pimbus.pktSize_pim_system.cpu.dcache_port::pim_system.spm.port      2802812                       # Cumulative packet size per connected requestor and responder (Byte)
pim_system.pimbus.pktSize_pim_system.cpu.dcache_port::pim_system.se_mem_ctrl.port           25                       # Cumulative packet size per connected requestor and responder (Byte)
pim_system.pimbus.pktSize_pim_system.cpu.dcache_port::total      2802837                       # Cumulative packet size per connected requestor and responder (Byte)
pim_system.pimbus.pktSize::total             92386501                       # Cumulative packet size per connected requestor and responder (Byte)
pim_system.pimbus.badaddr_responder.power_state.pwrStateResidencyTicks::UNDEFINED  13070641500                       # Cumulative time (in ticks) in various power states (Tick)
pim_system.pimbus.power_state.pwrStateResidencyTicks::UNDEFINED  13070641500                       # Cumulative time (in ticks) in various power states (Tick)
pim_system.se_mem_ctrl.bytesRead::pim_system.cpu.inst     89583664                       # Number of bytes read from this memory (Byte)
pim_system.se_mem_ctrl.bytesRead::total      89583664                       # Number of bytes read from this memory (Byte)
pim_system.se_mem_ctrl.bytesInstRead::pim_system.cpu.inst     89583664                       # Number of instructions bytes read from this memory (Byte)
pim_system.se_mem_ctrl.bytesInstRead::total     89583664                       # Number of instructions bytes read from this memory (Byte)
pim_system.se_mem_ctrl.bytesWritten::pim_system.cpu.data           25                       # Number of bytes written to this memory (Byte)
pim_system.se_mem_ctrl.bytesWritten::total           25                       # Number of bytes written to this memory (Byte)
pim_system.se_mem_ctrl.numReads::pim_system.cpu.inst     11197958                       # Number of read requests responded to by this memory (Count)
pim_system.se_mem_ctrl.numReads::total       11197958                       # Number of read requests responded to by this memory (Count)
pim_system.se_mem_ctrl.numWrites::pim_system.cpu.data            4                       # Number of write requests responded to by this memory (Count)
pim_system.se_mem_ctrl.numWrites::total             4                       # Number of write requests responded to by this memory (Count)
pim_system.se_mem_ctrl.bwRead::pim_system.cpu.inst   6853807749                       # Total read bandwidth from this memory ((Byte/Second))
pim_system.se_mem_ctrl.bwRead::total       6853807749                       # Total read bandwidth from this memory ((Byte/Second))
pim_system.se_mem_ctrl.bwInstRead::pim_system.cpu.inst   6853807749                       # Instruction read bandwidth from this memory ((Byte/Second))
pim_system.se_mem_ctrl.bwInstRead::total   6853807749                       # Instruction read bandwidth from this memory ((Byte/Second))
pim_system.se_mem_ctrl.bwWrite::pim_system.cpu.data         1913                       # Write bandwidth from this memory ((Byte/Second))
pim_system.se_mem_ctrl.bwWrite::total            1913                       # Write bandwidth from this memory ((Byte/Second))
pim_system.se_mem_ctrl.bwTotal::pim_system.cpu.inst   6853807749                       # Total bandwidth to/from this memory ((Byte/Second))
pim_system.se_mem_ctrl.bwTotal::pim_system.cpu.data         1913                       # Total bandwidth to/from this memory ((Byte/Second))
pim_system.se_mem_ctrl.bwTotal::total      6853809662                       # Total bandwidth to/from this memory ((Byte/Second))
pim_system.se_mem_ctrl.power_state.pwrStateResidencyTicks::UNDEFINED  13070641500                       # Cumulative time (in ticks) in various power states (Tick)
pim_system.spm.bytesRead::pim_system.cpu.data      2798717                       # Number of bytes read from this memory (Byte)
pim_system.spm.bytesRead::total               2798717                       # Number of bytes read from this memory (Byte)
pim_system.spm.bytesWritten::pim_system.cpu.data         4095                       # Number of bytes written to this memory (Byte)
pim_system.spm.bytesWritten::total               4095                       # Number of bytes written to this memory (Byte)
pim_system.spm.numReads::pim_system.cpu.data      2798717                       # Number of read requests responded to by this memory (Count)
pim_system.spm.numReads::total                2798717                       # Number of read requests responded to by this memory (Count)
pim_system.spm.numWrites::pim_system.cpu.data          518                       # Number of write requests responded to by this memory (Count)
pim_system.spm.numWrites::total                   518                       # Number of write requests responded to by this memory (Count)
pim_system.spm.bwRead::pim_system.cpu.data    214122390                       # Total read bandwidth from this memory ((Byte/Second))
pim_system.spm.bwRead::total                214122390                       # Total read bandwidth from this memory ((Byte/Second))
pim_system.spm.bwWrite::pim_system.cpu.data       313298                       # Write bandwidth from this memory ((Byte/Second))
pim_system.spm.bwWrite::total                  313298                       # Write bandwidth from this memory ((Byte/Second))
pim_system.spm.bwTotal::pim_system.cpu.data    214435688                       # Total bandwidth to/from this memory ((Byte/Second))
pim_system.spm.bwTotal::total               214435688                       # Total bandwidth to/from this memory ((Byte/Second))
pim_system.spm.power_state.pwrStateResidencyTicks::UNDEFINED  13070641500                       # Cumulative time (in ticks) in various power states (Tick)
pim_system.tohostbridge.power_state.pwrStateResidencyTicks::UNDEFINED  13070641500                       # Cumulative time (in ticks) in various power states (Tick)
pim_system.voltage_domain.voltage                   1                       # Voltage in Volts (Volt)
pim_system.workload.inst.arm                        0                       # number of arm instructions executed (Count)
pim_system.workload.inst.quiesce                    0                       # number of quiesce instructions executed (Count)
system.apicbridge.power_state.pwrStateResidencyTicks::UNDEFINED  13070641500                       # Cumulative time (in ticks) in various power states (Tick)
system.bridge.power_state.pwrStateResidencyTicks::UNDEFINED  13070641500                       # Cumulative time (in ticks) in various power states (Tick)
system.clk_domain.clock                          1000                       # Clock period in ticks (Tick)
system.cpu.numCycles                         26155721                       # Number of cpu cycles simulated (Cycle)
system.cpu.numWorkItemsStarted                      0                       # Number of work items this cpu started (Count)
system.cpu.numWorkItemsCompleted                    0                       # Number of work items this cpu completed (Count)
system.cpu.dcache.demandHits::system.cpu.data      5643368                       # number of demand (read+write) hits (Count)
system.cpu.dcache.demandHits::total           5643368                       # number of demand (read+write) hits (Count)
system.cpu.dcache.overallHits::system.cpu.data      5643368                       # number of overall hits (Count)
system.cpu.dcache.overallHits::total          5643368                       # number of overall hits (Count)
system.cpu.dcache.demandMisses::system.cpu.data        86045                       # number of demand (read+write) misses (Count)
system.cpu.dcache.demandMisses::total           86045                       # number of demand (read+write) misses (Count)
system.cpu.dcache.overallMisses::system.cpu.data        86045                       # number of overall misses (Count)
system.cpu.dcache.overallMisses::total          86045                       # number of overall misses (Count)
system.cpu.dcache.demandAccesses::system.cpu.data      5729413                       # number of demand (read+write) accesses (Count)
system.cpu.dcache.demandAccesses::total       5729413                       # number of demand (read+write) accesses (Count)
system.cpu.dcache.overallAccesses::system.cpu.data      5729413                       # number of overall (read+write) accesses (Count)
system.cpu.dcache.overallAccesses::total      5729413                       # number of overall (read+write) accesses (Count)
system.cpu.dcache.demandMissRate::system.cpu.data     0.015018                       # miss rate for demand accesses (Ratio)
system.cpu.dcache.demandMissRate::total      0.015018                       # miss rate for demand accesses (Ratio)
system.cpu.dcache.overallMissRate::system.cpu.data     0.015018                       # miss rate for overall accesses (Ratio)
system.cpu.dcache.overallMissRate::total     0.015018                       # miss rate for overall accesses (Ratio)
system.cpu.dcache.blockedCycles::no_mshrs            0                       # number of cycles access was blocked (Cycle)
system.cpu.dcache.blockedCycles::no_targets            0                       # number of cycles access was blocked (Cycle)
system.cpu.dcache.blockedCauses::no_mshrs            0                       # number of times access was blocked (Count)
system.cpu.dcache.blockedCauses::no_targets            0                       # number of times access was blocked (Count)
system.cpu.dcache.avgBlocked::no_mshrs            nan                       # average number of cycles each access was blocked ((Cycle/Count))
system.cpu.dcache.avgBlocked::no_targets          nan                       # average number of cycles each access was blocked ((Cycle/Count))
system.cpu.dcache.writebacks::.writebacks        85393                       # number of writebacks (Count)
system.cpu.dcache.writebacks::total             85393                       # number of writebacks (Count)
system.cpu.dcache.replacements                  85393                       # number of replacements (Count)
system.cpu.dcache.ReadReq.hits::system.cpu.data       312186                       # number of ReadReq hits (Count)
system.cpu.dcache.ReadReq.hits::total          312186                       # number of ReadReq hits (Count)
system.cpu.dcache.ReadReq.misses::system.cpu.data         2244                       # number of ReadReq misses (Count)
system.cpu.dcache.ReadReq.misses::total          2244                       # number of ReadReq misses (Count)
system.cpu.dcache.ReadReq.accesses::system.cpu.data       314430                       # number of ReadReq accesses(hits+misses) (Count)
system.cpu.dcache.ReadReq.accesses::total       314430                       # number of ReadReq accesses(hits+misses) (Count)
system.cpu.dcache.ReadReq.missRate::system.cpu.data     0.007137                       # miss rate for ReadReq accesses (Ratio)
system.cpu.dcache.ReadReq.missRate::total     0.007137                       # miss rate for ReadReq accesses (Ratio)
system.cpu.dcache.WriteReq.hits::system.cpu.data      5331182                       # number of WriteReq hits (Count)
system.cpu.dcache.WriteReq.hits::total        5331182                       # number of WriteReq hits (Count)
system.cpu.dcache.WriteReq.misses::system.cpu.data        83801                       # number of WriteReq misses (Count)
system.cpu.dcache.WriteReq.misses::total        83801                       # number of WriteReq misses (Count)
system.cpu.dcache.WriteReq.accesses::system.cpu.data      5414983                       # number of WriteReq accesses(hits+misses) (Count)
system.cpu.dcache.WriteReq.accesses::total      5414983                       # number of WriteReq accesses(hits+misses) (Count)
system.cpu.dcache.WriteReq.missRate::system.cpu.data     0.015476                       # miss rate for WriteReq accesses (Ratio)
system.cpu.dcache.WriteReq.missRate::total     0.015476                       # miss rate for WriteReq accesses (Ratio)
system.cpu.dcache.power_state.pwrStateResidencyTicks::UNDEFINED  13070641500                       # Cumulative time (in ticks) in various power states (Tick)
system.cpu.dcache.tags.tagsInUse           511.041879                       # Average ticks per tags in use ((Tick/Count))
system.cpu.dcache.tags.totalRefs              5729413                       # Total number of references to valid blocks. (Count)
system.cpu.dcache.tags.sampledRefs              85905                       # Sample count of references to valid blocks. (Count)
system.cpu.dcache.tags.avgRefs              66.694756                       # Average number of references to valid blocks. ((Count/Count))
system.cpu.dcache.tags.warmupTick                2500                       # The tick when the warmup percentage was hit. (Tick)
system.cpu.dcache.tags.occupancies::system.cpu.data   511.041879                       # Average occupied blocks per tick, per requestor ((Count/Tick))
system.cpu.dcache.tags.avgOccs::system.cpu.data     0.998129                       # Average percentage of cache occupancy ((Ratio/Tick))
system.cpu.dcache.tags.avgOccs::total        0.998129                       # Average percentage of cache occupancy ((Ratio/Tick))
system.cpu.dcache.tags.occupanciesTaskId::1024          512                       # Occupied blocks per task id (Count)
system.cpu.dcache.tags.ageTaskId_1024::0           79                       # Occupied blocks per task id, per block age (Count)
system.cpu.dcache.tags.ageTaskId_1024::1          433                       # Occupied blocks per task id, per block age (Count)
system.cpu.dcache.tags.ratioOccsTaskId::1024            1                       # Ratio of occupied blocks and all blocks, per task id (Ratio)
system.cpu.dcache.tags.tagAccesses           11544731                       # Number of tag accesses (Count)
system.cpu.dcache.tags.dataAccesses          11544731                       # Number of data accesses (Count)
system.cpu.dcache.tags.power_state.pwrStateResidencyTicks::UNDEFINED  13070641500                       # Cumulative time (in ticks) in various power states (Tick)
system.cpu.exec_context.thread_0.numInsts      2113302                       # Number of instructions committed (Count)
system.cpu.exec_context.thread_0.numOps      25488145                       # Number of ops (including micro ops) committed (Count)
system.cpu.exec_context.thread_0.numIntAluAccesses     20038240                       # Number of integer alu accesses (Count)
system.cpu.exec_context.thread_0.numFpAluAccesses           48                       # Number of float alu accesses (Count)
system.cpu.exec_context.thread_0.numVecAluAccesses            0                       # Number of vector alu accesses (Count)
system.cpu.exec_context.thread_0.numCallsReturns        78327                       # Number of times a function call or return occured (Count)
system.cpu.exec_context.thread_0.numCondCtrlInsts      5677504                       # Number of instructions that are conditional controls (Count)
system.cpu.exec_context.thread_0.numIntInsts     20038240                       # Number of integer instructions (Count)
system.cpu.exec_context.thread_0.numFpInsts           48                       # Number of float instructions (Count)
system.cpu.exec_context.thread_0.numVecInsts            0                       # Number of vector instructions (Count)
system.cpu.exec_context.thread_0.numIntRegReads     44425620                       # Number of times the integer registers were read (Count)
system.cpu.exec_context.thread_0.numIntRegWrites     14100186                       # Number of times the integer registers were written (Count)
system.cpu.exec_context.thread_0.numFpRegReads           48                       # Number of times the floating registers were read (Count)
system.cpu.exec_context.thread_0.numFpRegWrites            0                       # Number of times the floating registers were written (Count)
system.cpu.exec_context.thread_0.numVecRegReads            0                       # Number of times the vector registers were read (Count)
system.cpu.exec_context.thread_0.numVecRegWrites            0                       # Number of times the vector registers were written (Count)
system.cpu.exec_context.thread_0.numVecPredRegReads            0                       # Number of times the predicate registers were read (Count)
system.cpu.exec_context.thread_0.numVecPredRegWrites            0                       # Number of times the predicate registers were written (Count)
system.cpu.exec_context.thread_0.numCCRegReads     28939332                       # Number of times the CC registers were read (Count)
system.cpu.exec_context.thread_0.numCCRegWrites      6924671                       # Number of times the CC registers were written (Count)
system.cpu.exec_context.thread_0.numMemRefs      5803502                       # Number of memory refs (Count)
system.cpu.exec_context.thread_0.numLoadInsts       377849                       # Number of load instructions (Count)
system.cpu.exec_context.thread_0.numStoreInsts      5425653                       # Number of store instructions (Count)
system.cpu.exec_context.thread_0.numIdleCycles            0                       # Number of idle cycles (Cycle)
system.cpu.exec_context.thread_0.numBusyCycles     26155721                       # Number of busy cycles (Cycle)
system.cpu.exec_context.thread_0.notIdleFraction            1                       # Percentage of non-idle cycles (Ratio)
system.cpu.exec_context.thread_0.idleFraction            0                       # Percentage of idle cycles (Ratio)
system.cpu.exec_context.thread_0.numBranches      5867416                       # Number of branches fetched (Count)
system.cpu.exec_context.thread_0.statExecutedInstType::No_OpClass         1103      0.00%      0.00% # Class of executed instruction. (Count)
system.cpu.exec_context.thread_0.statExecutedInstType::IntAlu     19620194     76.98%     76.98% # Class of executed instruction. (Count)
system.cpu.exec_context.thread_0.statExecutedInstType::IntMult        61894      0.24%     77.22% # Class of executed instruction. (Count)
system.cpu.exec_context.thread_0.statExecutedInstType::IntDiv         1440      0.01%     77.23% # Class of executed instruction. (Count)
system.cpu.exec_context.thread_0.statExecutedInstType::FloatAdd            0      0.00%     77.23% # Class of executed instruction. (Count)
system.cpu.exec_context.thread_0.statExecutedInstType::FloatCmp            0      0.00%     77.23% # Class of executed instruction. (Count)
system.cpu.exec_context.thread_0.statExecutedInstType::FloatCvt           16      0.00%     77.23% # Class of executed instruction. (Count)
system.cpu.exec_context.thread_0.statExecutedInstType::FloatMult            0      0.00%     77.23% # Class of executed instruction. (Count)
system.cpu.exec_context.thread_0.statExecutedInstType::FloatMultAcc            0      0.00%     77.23% # Class of executed instruction. (Count)
system.cpu.exec_context.thread_0.statExecutedInstType::FloatDiv            0      0.00%     77.23% # Class of executed instruction. (Count)
system.cpu.exec_context.thread_0.statExecutedInstType::FloatMisc            0      0.00%     77.23% # Class of executed instruction. (Count)
system.cpu.exec_context.thread_0.statExecutedInstType::FloatSqrt            0      0.00%     77.23% # Class of executed instruction. (Count)
system.cpu.exec_context.thread_0.statExecutedInstType::SimdAdd            0      0.00%     77.23% # Class of executed instruction. (Count)
system.cpu.exec_context.thread_0.statExecutedInstType::SimdAddAcc            0      0.00%     77.23% # Class of executed instruction. (Count)
system.cpu.exec_context.thread_0.statExecutedInstType::SimdAlu            0      0.00%     77.23% # Class of executed instruction. (Count)
system.cpu.exec_context.thread_0.statExecutedInstType::SimdCmp            0      0.00%     77.23% # Class of executed instruction. (Count)
system.cpu.exec_context.thread_0.statExecutedInstType::SimdCvt            0      0.00%     77.23% # Class of executed instruction. (Count)
system.cpu.exec_context.thread_0.statExecutedInstType::SimdMisc            0      0.00%     77.23% # Class of executed instruction. (Count)
system.cpu.exec_context.thread_0.statExecutedInstType::SimdMult            0      0.00%     77.23% # Class of executed instruction. (Count)
system.cpu.exec_context.thread_0.statExecutedInstType::SimdMultAcc            0      0.00%     77.23% # Class of executed instruction. (Count)
system.cpu.exec_context.thread_0.statExecutedInstType::SimdShift            0      0.00%     77.23% # Class of executed instruction. (Count)
system.cpu.exec_context.thread_0.statExecutedInstType::SimdShiftAcc            0      0.00%     77.23% # Class of executed instruction. (Count)
system.cpu.exec_context.thread_0.statExecutedInstType::SimdDiv            0      0.00%     77.23% # Class of executed instruction. (Count)
system.cpu.exec_context.thread_0.statExecutedInstType::SimdSqrt            0      0.00%     77.23% # Class of executed instruction. (Count)
system.cpu.exec_context.thread_0.statExecutedInstType::SimdFloatAdd            0      0.00%     77.23% # Class of executed instruction. (Count)
system.cpu.exec_context.thread_0.statExecutedInstType::SimdFloatAlu            0      0.00%     77.23% # Class of executed instruction. (Count)
system.cpu.exec_context.thread_0.statExecutedInstType::SimdFloatCmp            0      0.00%     77.23% # Class of executed instruction. (Count)
system.cpu.exec_context.thread_0.statExecutedInstType::SimdFloatCvt            0      0.00%     77.23% # Class of executed instruction. (Count)
system.cpu.exec_context.thread_0.statExecutedInstType::SimdFloatDiv            0      0.00%     77.23% # Class of executed instruction. (Count)
system.cpu.exec_context.thread_0.statExecutedInstType::SimdFloatMisc            0      0.00%     77.23% # Class of executed instruction. (Count)
system.cpu.exec_context.thread_0.statExecutedInstType::SimdFloatMult            0      0.00%     77.23% # Class of executed instruction. (Count)
system.cpu.exec_context.thread_0.statExecutedInstType::SimdFloatMultAcc            0      0.00%     77.23% # Class of executed instruction. (Count)
system.cpu.exec_context.thread_0.statExecutedInstType::SimdFloatSqrt            0      0.00%     77.23% # Class of executed instruction. (Count)
system.cpu.exec_context.thread_0.statExecutedInstType::SimdReduceAdd            0      0.00%     77.23% # Class of executed instruction. (Count)
system.cpu.exec_context.thread_0.statExecutedInstType::SimdReduceAlu            0      0.00%     77.23% # Class of executed instruction. (Count)
system.cpu.exec_context.thread_0.statExecutedInstType::SimdReduceCmp            0      0.00%     77.23% # Class of executed instruction. (Count)
system.cpu.exec_context.thread_0.statExecutedInstType::SimdFloatReduceAdd            0      0.00%     77.23% # Class of executed instruction. (Count)
system.cpu.exec_context.thread_0.statExecutedInstType::SimdFloatReduceCmp            0      0.00%     77.23% # Class of executed instruction. (Count)
system.cpu.exec_context.thread_0.statExecutedInstType::SimdAes            0      0.00%     77.23% # Class of executed instruction. (Count)
system.cpu.exec_context.thread_0.statExecutedInstType::SimdAesMix            0      0.00%     77.23% # Class of executed instruction. (Count)
system.cpu.exec_context.thread_0.statExecutedInstType::SimdSha1Hash            0      0.00%     77.23% # Class of executed instruction. (Count)
system.cpu.exec_context.thread_0.statExecutedInstType::SimdSha1Hash2            0      0.00%     77.23% # Class of executed instruction. (Count)
system.cpu.exec_context.thread_0.statExecutedInstType::SimdSha256Hash            0      0.00%     77.23% # Class of executed instruction. (Count)
system.cpu.exec_context.thread_0.statExecutedInstType::SimdSha256Hash2            0      0.00%     77.23% # Class of executed instruction. (Count)
system.cpu.exec_context.thread_0.statExecutedInstType::SimdShaSigma2            0      0.00%     77.23% # Class of executed instruction. (Count)
system.cpu.exec_context.thread_0.statExecutedInstType::SimdShaSigma3            0      0.00%     77.23% # Class of executed instruction. (Count)
system.cpu.exec_context.thread_0.statExecutedInstType::SimdPredAlu            0      0.00%     77.23% # Class of executed instruction. (Count)
system.cpu.exec_context.thread_0.statExecutedInstType::MemRead       377849      1.48%     78.71% # Class of executed instruction. (Count)
system.cpu.exec_context.thread_0.statExecutedInstType::MemWrite      5425621     21.29%    100.00% # Class of executed instruction. (Count)
system.cpu.exec_context.thread_0.statExecutedInstType::FloatMemRead            0      0.00%    100.00% # Class of executed instruction. (Count)
system.cpu.exec_context.thread_0.statExecutedInstType::FloatMemWrite           32      0.00%    100.00% # Class of executed instruction. (Count)
system.cpu.exec_context.thread_0.statExecutedInstType::IprAccess            0      0.00%    100.00% # Class of executed instruction. (Count)
system.cpu.exec_context.thread_0.statExecutedInstType::InstPrefetch            0      0.00%    100.00% # Class of executed instruction. (Count)
system.cpu.exec_context.thread_0.statExecutedInstType::total     25488149                       # Class of executed instruction. (Count)
system.cpu.icache.demandHits::system.cpu.inst      2779739                       # number of demand (read+write) hits (Count)
system.cpu.icache.demandHits::total           2779739                       # number of demand (read+write) hits (Count)
system.cpu.icache.overallHits::system.cpu.inst      2779739                       # number of overall hits (Count)
system.cpu.icache.overallHits::total          2779739                       # number of overall hits (Count)
system.cpu.icache.demandMisses::system.cpu.inst         1136                       # number of demand (read+write) misses (Count)
system.cpu.icache.demandMisses::total            1136                       # number of demand (read+write) misses (Count)
system.cpu.icache.overallMisses::system.cpu.inst         1136                       # number of overall misses (Count)
system.cpu.icache.overallMisses::total           1136                       # number of overall misses (Count)
system.cpu.icache.demandAccesses::system.cpu.inst      2780875                       # number of demand (read+write) accesses (Count)
system.cpu.icache.demandAccesses::total       2780875                       # number of demand (read+write) accesses (Count)
system.cpu.icache.overallAccesses::system.cpu.inst      2780875                       # number of overall (read+write) accesses (Count)
system.cpu.icache.overallAccesses::total      2780875                       # number of overall (read+write) accesses (Count)
system.cpu.icache.demandMissRate::system.cpu.inst     0.000409                       # miss rate for demand accesses (Ratio)
system.cpu.icache.demandMissRate::total      0.000409                       # miss rate for demand accesses (Ratio)
system.cpu.icache.overallMissRate::system.cpu.inst     0.000409                       # miss rate for overall accesses (Ratio)
system.cpu.icache.overallMissRate::total     0.000409                       # miss rate for overall accesses (Ratio)
system.cpu.icache.blockedCycles::no_mshrs            0                       # number of cycles access was blocked (Cycle)
system.cpu.icache.blockedCycles::no_targets            0                       # number of cycles access was blocked (Cycle)
system.cpu.icache.blockedCauses::no_mshrs            0                       # number of times access was blocked (Count)
system.cpu.icache.blockedCauses::no_targets            0                       # number of times access was blocked (Count)
system.cpu.icache.avgBlocked::no_mshrs            nan                       # average number of cycles each access was blocked ((Cycle/Count))
system.cpu.icache.avgBlocked::no_targets          nan                       # average number of cycles each access was blocked ((Cycle/Count))
system.cpu.icache.writebacks::.writebacks          667                       # number of writebacks (Count)
system.cpu.icache.writebacks::total               667                       # number of writebacks (Count)
system.cpu.icache.replacements                    667                       # number of replacements (Count)
system.cpu.icache.ReadReq.hits::system.cpu.inst      2779739                       # number of ReadReq hits (Count)
system.cpu.icache.ReadReq.hits::total         2779739                       # number of ReadReq hits (Count)
system.cpu.icache.ReadReq.misses::system.cpu.inst         1136                       # number of ReadReq misses (Count)
system.cpu.icache.ReadReq.misses::total          1136                       # number of ReadReq misses (Count)
system.cpu.icache.ReadReq.accesses::system.cpu.inst      2780875                       # number of ReadReq accesses(hits+misses) (Count)
system.cpu.icache.ReadReq.accesses::total      2780875                       # number of ReadReq accesses(hits+misses) (Count)
system.cpu.icache.ReadReq.missRate::system.cpu.inst     0.000409                       # miss rate for ReadReq accesses (Ratio)
system.cpu.icache.ReadReq.missRate::total     0.000409                       # miss rate for ReadReq accesses (Ratio)
system.cpu.icache.power_state.pwrStateResidencyTicks::UNDEFINED  13070641500                       # Cumulative time (in ticks) in various power states (Tick)
system.cpu.icache.tags.tagsInUse           401.339876                       # Average ticks per tags in use ((Tick/Count))
system.cpu.icache.tags.totalRefs              2780875                       # Total number of references to valid blocks. (Count)
system.cpu.icache.tags.sampledRefs               1136                       # Sample count of references to valid blocks. (Count)
system.cpu.icache.tags.avgRefs            2447.953345                       # Average number of references to valid blocks. ((Count/Count))
system.cpu.icache.tags.warmupTick                   0                       # The tick when the warmup percentage was hit. (Tick)
system.cpu.icache.tags.occupancies::system.cpu.inst   401.339876                       # Average occupied blocks per tick, per requestor ((Count/Tick))
system.cpu.icache.tags.avgOccs::system.cpu.inst     0.783867                       # Average percentage of cache occupancy ((Ratio/Tick))
system.cpu.icache.tags.avgOccs::total        0.783867                       # Average percentage of cache occupancy ((Ratio/Tick))
system.cpu.icache.tags.occupanciesTaskId::1024          469                       # Occupied blocks per task id (Count)
system.cpu.icache.tags.ageTaskId_1024::2           20                       # Occupied blocks per task id, per block age (Count)
system.cpu.icache.tags.ageTaskId_1024::3          140                       # Occupied blocks per task id, per block age (Count)
system.cpu.icache.tags.ageTaskId_1024::4          309                       # Occupied blocks per task id, per block age (Count)
system.cpu.icache.tags.ratioOccsTaskId::1024     0.916016                       # Ratio of occupied blocks and all blocks, per task id (Ratio)
system.cpu.icache.tags.tagAccesses            5562886                       # Number of tag accesses (Count)
system.cpu.icache.tags.dataAccesses           5562886                       # Number of data accesses (Count)
system.cpu.icache.tags.power_state.pwrStateResidencyTicks::UNDEFINED  13070641500                       # Cumulative time (in ticks) in various power states (Tick)
system.cpu.interrupts.clk_domain.clock           8000                       # Clock period in ticks (Tick)
system.cpu.mmu.dtb.rdAccesses                  314433                       # TLB accesses on read requests (Count)
system.cpu.mmu.dtb.wrAccesses                 5415186                       # TLB accesses on write requests (Count)
system.cpu.mmu.dtb.rdMisses                       192                       # TLB misses on read requests (Count)
system.cpu.mmu.dtb.wrMisses                        34                       # TLB misses on write requests (Count)
system.cpu.mmu.dtb.walker.power_state.pwrStateResidencyTicks::UNDEFINED  13070641500                       # Cumulative time (in ticks) in various power states (Tick)
system.cpu.mmu.itb.rdAccesses                       0                       # TLB accesses on read requests (Count)
system.cpu.mmu.itb.wrAccesses                 2780875                       # TLB accesses on write requests (Count)
system.cpu.mmu.itb.rdMisses                         0                       # TLB misses on read requests (Count)
system.cpu.mmu.itb.wrMisses                        79                       # TLB misses on write requests (Count)
system.cpu.mmu.itb.walker.power_state.pwrStateResidencyTicks::UNDEFINED  13070641500                       # Cumulative time (in ticks) in various power states (Tick)
system.cpu.power_state.pwrStateResidencyTicks::ON  13070641500                       # Cumulative time (in ticks) in various power states (Tick)
system.cpu.thread_0.numInsts                        0                       # Number of Instructions committed (Count)
system.cpu.thread_0.numOps                          0                       # Number of Ops committed (Count)
system.cpu.thread_0.numMemRefs                      0                       # Number of Memory References (Count)
system.cpu_clk_domain.clock                       500                       # Clock period in ticks (Tick)
system.cpu_voltage_domain.voltage                   1                       # Voltage in Volts (Volt)
system.iobus.transDist::ReadReq                 63394                       # Transaction distribution (Count)
system.iobus.transDist::ReadResp                63394                       # Transaction distribution (Count)
system.iobus.transDist::WriteReq                 2207                       # Transaction distribution (Count)
system.iobus.transDist::WriteResp                2207                       # Transaction distribution (Count)
system.iobus.pktCount_system.bridge.mem_side_port::system.pc.south_bridge.pit.pio       105866                       # Packet count per connected requestor and responder (Count)
system.iobus.pktCount_system.bridge.mem_side_port::system.pc.south_bridge.speaker.pio            4                       # Packet count per connected requestor and responder (Count)
system.iobus.pktCount_system.bridge.mem_side_port::system.pc.com_1.pio         8798                       # Packet count per connected requestor and responder (Count)
system.iobus.pktCount_system.bridge.mem_side_port::system.pc.pci_host.pio        16534                       # Packet count per connected requestor and responder (Count)
system.iobus.pktCount_system.bridge.mem_side_port::total       131202                       # Packet count per connected requestor and responder (Count)
system.iobus.pktCount::total                   131202                       # Packet count per connected requestor and responder (Count)
system.iobus.pktSize_system.bridge.mem_side_port::system.pc.south_bridge.pit.pio        52933                       # Cumulative packet size per connected requestor and responder (Byte)
system.iobus.pktSize_system.bridge.mem_side_port::system.pc.south_bridge.speaker.pio            2                       # Cumulative packet size per connected requestor and responder (Byte)
system.iobus.pktSize_system.bridge.mem_side_port::system.pc.com_1.pio         4399                       # Cumulative packet size per connected requestor and responder (Byte)
system.iobus.pktSize_system.bridge.mem_side_port::system.pc.pci_host.pio        33063                       # Cumulative packet size per connected requestor and responder (Byte)
system.iobus.pktSize_system.bridge.mem_side_port::total        90397                       # Cumulative packet size per connected requestor and responder (Byte)
system.iobus.pktSize::total                     90397                       # Cumulative packet size per connected requestor and responder (Byte)
system.iobus.power_state.pwrStateResidencyTicks::UNDEFINED  13070641500                       # Cumulative time (in ticks) in various power states (Tick)
system.iocache.blockedCycles::no_mshrs              0                       # number of cycles access was blocked (Cycle)
system.iocache.blockedCycles::no_targets            0                       # number of cycles access was blocked (Cycle)
system.iocache.blockedCauses::no_mshrs              0                       # number of times access was blocked (Count)
system.iocache.blockedCauses::no_targets            0                       # number of times access was blocked (Count)
system.iocache.avgBlocked::no_mshrs               nan                       # average number of cycles each access was blocked ((Cycle/Count))
system.iocache.avgBlocked::no_targets             nan                       # average number of cycles each access was blocked ((Cycle/Count))
system.iocache.replacements                         0                       # number of replacements (Count)
system.iocache.power_state.pwrStateResidencyTicks::UNDEFINED  13070641500                       # Cumulative time (in ticks) in various power states (Tick)
system.iocache.tags.tagsInUse                       0                       # Average ticks per tags in use ((Tick/Count))
system.iocache.tags.totalRefs                       0                       # Total number of references to valid blocks. (Count)
system.iocache.tags.sampledRefs                     0                       # Sample count of references to valid blocks. (Count)
system.iocache.tags.avgRefs                       nan                       # Average number of references to valid blocks. ((Count/Count))
system.iocache.tags.warmupTick                      0                       # The tick when the warmup percentage was hit. (Tick)
system.iocache.tags.tagAccesses                     0                       # Number of tag accesses (Count)
system.iocache.tags.dataAccesses                    0                       # Number of data accesses (Count)
system.iocache.tags.power_state.pwrStateResidencyTicks::UNDEFINED  13070641500                       # Cumulative time (in ticks) in various power states (Tick)
system.l2.demandHits::system.cpu.mmu.dtb.walker          621                       # number of demand (read+write) hits (Count)
system.l2.demandHits::system.cpu.mmu.itb.walker          180                       # number of demand (read+write) hits (Count)
system.l2.demandHits::system.cpu.inst             288                       # number of demand (read+write) hits (Count)
system.l2.demandHits::system.cpu.data            1054                       # number of demand (read+write) hits (Count)
system.l2.demandHits::total                      2143                       # number of demand (read+write) hits (Count)
system.l2.overallHits::system.cpu.mmu.dtb.walker          621                       # number of overall hits (Count)
system.l2.overallHits::system.cpu.mmu.itb.walker          180                       # number of overall hits (Count)
system.l2.overallHits::system.cpu.inst            288                       # number of overall hits (Count)
system.l2.overallHits::system.cpu.data           1054                       # number of overall hits (Count)
system.l2.overallHits::total                     2143                       # number of overall hits (Count)
system.l2.demandMisses::system.cpu.mmu.dtb.walker           10                       # number of demand (read+write) misses (Count)
system.l2.demandMisses::system.cpu.mmu.itb.walker            3                       # number of demand (read+write) misses (Count)
system.l2.demandMisses::system.cpu.inst           848                       # number of demand (read+write) misses (Count)
system.l2.demandMisses::system.cpu.data         84851                       # number of demand (read+write) misses (Count)
system.l2.demandMisses::total                   85712                       # number of demand (read+write) misses (Count)
system.l2.overallMisses::system.cpu.mmu.dtb.walker           10                       # number of overall misses (Count)
system.l2.overallMisses::system.cpu.mmu.itb.walker            3                       # number of overall misses (Count)
system.l2.overallMisses::system.cpu.inst          848                       # number of overall misses (Count)
system.l2.overallMisses::system.cpu.data        84851                       # number of overall misses (Count)
system.l2.overallMisses::total                  85712                       # number of overall misses (Count)
system.l2.demandAccesses::system.cpu.mmu.dtb.walker          631                       # number of demand (read+write) accesses (Count)
system.l2.demandAccesses::system.cpu.mmu.itb.walker          183                       # number of demand (read+write) accesses (Count)
system.l2.demandAccesses::system.cpu.inst         1136                       # number of demand (read+write) accesses (Count)
system.l2.demandAccesses::system.cpu.data        85905                       # number of demand (read+write) accesses (Count)
system.l2.demandAccesses::total                 87855                       # number of demand (read+write) accesses (Count)
system.l2.overallAccesses::system.cpu.mmu.dtb.walker          631                       # number of overall (read+write) accesses (Count)
system.l2.overallAccesses::system.cpu.mmu.itb.walker          183                       # number of overall (read+write) accesses (Count)
system.l2.overallAccesses::system.cpu.inst         1136                       # number of overall (read+write) accesses (Count)
system.l2.overallAccesses::system.cpu.data        85905                       # number of overall (read+write) accesses (Count)
system.l2.overallAccesses::total                87855                       # number of overall (read+write) accesses (Count)
system.l2.demandMissRate::system.cpu.mmu.dtb.walker     0.015848                       # miss rate for demand accesses (Ratio)
system.l2.demandMissRate::system.cpu.mmu.itb.walker     0.016393                       # miss rate for demand accesses (Ratio)
system.l2.demandMissRate::system.cpu.inst     0.746479                       # miss rate for demand accesses (Ratio)
system.l2.demandMissRate::system.cpu.data     0.987731                       # miss rate for demand accesses (Ratio)
system.l2.demandMissRate::total              0.975608                       # miss rate for demand accesses (Ratio)
system.l2.overallMissRate::system.cpu.mmu.dtb.walker     0.015848                       # miss rate for overall accesses (Ratio)
system.l2.overallMissRate::system.cpu.mmu.itb.walker     0.016393                       # miss rate for overall accesses (Ratio)
system.l2.overallMissRate::system.cpu.inst     0.746479                       # miss rate for overall accesses (Ratio)
system.l2.overallMissRate::system.cpu.data     0.987731                       # miss rate for overall accesses (Ratio)
system.l2.overallMissRate::total             0.975608                       # miss rate for overall accesses (Ratio)
system.l2.blockedCycles::no_mshrs                   0                       # number of cycles access was blocked (Cycle)
system.l2.blockedCycles::no_targets                 0                       # number of cycles access was blocked (Cycle)
system.l2.blockedCauses::no_mshrs                   0                       # number of times access was blocked (Count)
system.l2.blockedCauses::no_targets                 0                       # number of times access was blocked (Count)
system.l2.avgBlocked::no_mshrs                    nan                       # average number of cycles each access was blocked ((Cycle/Count))
system.l2.avgBlocked::no_targets                  nan                       # average number of cycles each access was blocked ((Cycle/Count))
system.l2.writebacks::.writebacks               69381                       # number of writebacks (Count)
system.l2.writebacks::total                     69381                       # number of writebacks (Count)
system.l2.replacements                          69381                       # number of replacements (Count)
system.l2.ReadCleanReq.hits::system.cpu.inst          288                       # number of ReadCleanReq hits (Count)
system.l2.ReadCleanReq.hits::total                288                       # number of ReadCleanReq hits (Count)
system.l2.ReadCleanReq.misses::system.cpu.inst          848                       # number of ReadCleanReq misses (Count)
system.l2.ReadCleanReq.misses::total              848                       # number of ReadCleanReq misses (Count)
system.l2.ReadCleanReq.accesses::system.cpu.inst         1136                       # number of ReadCleanReq accesses(hits+misses) (Count)
system.l2.ReadCleanReq.accesses::total           1136                       # number of ReadCleanReq accesses(hits+misses) (Count)
system.l2.ReadCleanReq.missRate::system.cpu.inst     0.746479                       # miss rate for ReadCleanReq accesses (Ratio)
system.l2.ReadCleanReq.missRate::total       0.746479                       # miss rate for ReadCleanReq accesses (Ratio)
system.l2.ReadExReq.hits::system.cpu.data          487                       # number of ReadExReq hits (Count)
system.l2.ReadExReq.hits::total                   487                       # number of ReadExReq hits (Count)
system.l2.ReadExReq.misses::system.cpu.data        83174                       # number of ReadExReq misses (Count)
system.l2.ReadExReq.misses::total               83174                       # number of ReadExReq misses (Count)
system.l2.ReadExReq.accesses::system.cpu.data        83661                       # number of ReadExReq accesses(hits+misses) (Count)
system.l2.ReadExReq.accesses::total             83661                       # number of ReadExReq accesses(hits+misses) (Count)
system.l2.ReadExReq.missRate::system.cpu.data     0.994179                       # miss rate for ReadExReq accesses (Ratio)
system.l2.ReadExReq.missRate::total          0.994179                       # miss rate for ReadExReq accesses (Ratio)
system.l2.ReadReq.hits::system.cpu.mmu.dtb.walker          621                       # number of ReadReq hits (Count)
system.l2.ReadReq.hits::system.cpu.mmu.itb.walker          178                       # number of ReadReq hits (Count)
system.l2.ReadReq.hits::total                     799                       # number of ReadReq hits (Count)
system.l2.ReadReq.misses::system.cpu.mmu.dtb.walker           10                       # number of ReadReq misses (Count)
system.l2.ReadReq.misses::system.cpu.mmu.itb.walker            3                       # number of ReadReq misses (Count)
system.l2.ReadReq.misses::total                    13                       # number of ReadReq misses (Count)
system.l2.ReadReq.accesses::system.cpu.mmu.dtb.walker          631                       # number of ReadReq accesses(hits+misses) (Count)
system.l2.ReadReq.accesses::system.cpu.mmu.itb.walker          181                       # number of ReadReq accesses(hits+misses) (Count)
system.l2.ReadReq.accesses::total                 812                       # number of ReadReq accesses(hits+misses) (Count)
system.l2.ReadReq.missRate::system.cpu.mmu.dtb.walker     0.015848                       # miss rate for ReadReq accesses (Ratio)
system.l2.ReadReq.missRate::system.cpu.mmu.itb.walker     0.016575                       # miss rate for ReadReq accesses (Ratio)
system.l2.ReadReq.missRate::total            0.016010                       # miss rate for ReadReq accesses (Ratio)
system.l2.ReadSharedReq.hits::system.cpu.data          567                       # number of ReadSharedReq hits (Count)
system.l2.ReadSharedReq.hits::total               567                       # number of ReadSharedReq hits (Count)
system.l2.ReadSharedReq.misses::system.cpu.data         1677                       # number of ReadSharedReq misses (Count)
system.l2.ReadSharedReq.misses::total            1677                       # number of ReadSharedReq misses (Count)
system.l2.ReadSharedReq.accesses::system.cpu.data         2244                       # number of ReadSharedReq accesses(hits+misses) (Count)
system.l2.ReadSharedReq.accesses::total          2244                       # number of ReadSharedReq accesses(hits+misses) (Count)
system.l2.ReadSharedReq.missRate::system.cpu.data     0.747326                       # miss rate for ReadSharedReq accesses (Ratio)
system.l2.ReadSharedReq.missRate::total      0.747326                       # miss rate for ReadSharedReq accesses (Ratio)
system.l2.UpgradeReq.hits::system.cpu.data          138                       # number of UpgradeReq hits (Count)
system.l2.UpgradeReq.hits::total                  138                       # number of UpgradeReq hits (Count)
system.l2.UpgradeReq.misses::system.cpu.data            2                       # number of UpgradeReq misses (Count)
system.l2.UpgradeReq.misses::total                  2                       # number of UpgradeReq misses (Count)
system.l2.UpgradeReq.accesses::system.cpu.data          140                       # number of UpgradeReq accesses(hits+misses) (Count)
system.l2.UpgradeReq.accesses::total              140                       # number of UpgradeReq accesses(hits+misses) (Count)
system.l2.UpgradeReq.missRate::system.cpu.data     0.014286                       # miss rate for UpgradeReq accesses (Ratio)
system.l2.UpgradeReq.missRate::total         0.014286                       # miss rate for UpgradeReq accesses (Ratio)
system.l2.WriteReq.hits::system.cpu.mmu.itb.walker            2                       # number of WriteReq hits (Count)
system.l2.WriteReq.hits::total                      2                       # number of WriteReq hits (Count)
system.l2.WriteReq.accesses::system.cpu.mmu.itb.walker            2                       # number of WriteReq accesses(hits+misses) (Count)
system.l2.WriteReq.accesses::total                  2                       # number of WriteReq accesses(hits+misses) (Count)
system.l2.WritebackClean.hits::.writebacks         2378                       # number of WritebackClean hits (Count)
system.l2.WritebackClean.hits::total             2378                       # number of WritebackClean hits (Count)
system.l2.WritebackClean.accesses::.writebacks         2378                       # number of WritebackClean accesses(hits+misses) (Count)
system.l2.WritebackClean.accesses::total         2378                       # number of WritebackClean accesses(hits+misses) (Count)
system.l2.WritebackDirty.hits::.writebacks        83682                       # number of WritebackDirty hits (Count)
system.l2.WritebackDirty.hits::total            83682                       # number of WritebackDirty hits (Count)
system.l2.WritebackDirty.accesses::.writebacks        83682                       # number of WritebackDirty accesses(hits+misses) (Count)
system.l2.WritebackDirty.accesses::total        83682                       # number of WritebackDirty accesses(hits+misses) (Count)
system.l2.power_state.pwrStateResidencyTicks::UNDEFINED  13070641500                       # Cumulative time (in ticks) in various power states (Tick)
system.l2.tags.tagsInUse                 14891.159106                       # Average ticks per tags in use ((Tick/Count))
system.l2.tags.totalRefs                       174053                       # Total number of references to valid blocks. (Count)
system.l2.tags.sampledRefs                      85765                       # Sample count of references to valid blocks. (Count)
system.l2.tags.avgRefs                       2.029418                       # Average number of references to valid blocks. ((Count/Count))
system.l2.tags.warmupTick                           0                       # The tick when the warmup percentage was hit. (Tick)
system.l2.tags.occupancies::.writebacks     10.320132                       # Average occupied blocks per tick, per requestor ((Count/Tick))
system.l2.tags.occupancies::system.cpu.mmu.dtb.walker     1.188265                       # Average occupied blocks per tick, per requestor ((Count/Tick))
system.l2.tags.occupancies::system.cpu.mmu.itb.walker     0.056036                       # Average occupied blocks per tick, per requestor ((Count/Tick))
system.l2.tags.occupancies::system.cpu.inst   238.368540                       # Average occupied blocks per tick, per requestor ((Count/Tick))
system.l2.tags.occupancies::system.cpu.data 14641.226133                       # Average occupied blocks per tick, per requestor ((Count/Tick))
system.l2.tags.avgOccs::.writebacks          0.000630                       # Average percentage of cache occupancy ((Ratio/Tick))
system.l2.tags.avgOccs::system.cpu.mmu.dtb.walker     0.000073                       # Average percentage of cache occupancy ((Ratio/Tick))
system.l2.tags.avgOccs::system.cpu.mmu.itb.walker     0.000003                       # Average percentage of cache occupancy ((Ratio/Tick))
system.l2.tags.avgOccs::system.cpu.inst      0.014549                       # Average percentage of cache occupancy ((Ratio/Tick))
system.l2.tags.avgOccs::system.cpu.data      0.893630                       # Average percentage of cache occupancy ((Ratio/Tick))
system.l2.tags.avgOccs::total                0.908884                       # Average percentage of cache occupancy ((Ratio/Tick))
system.l2.tags.occupanciesTaskId::1024          16384                       # Occupied blocks per task id (Count)
system.l2.tags.ageTaskId_1024::0                   79                       # Occupied blocks per task id, per block age (Count)
system.l2.tags.ageTaskId_1024::1                  703                       # Occupied blocks per task id, per block age (Count)
system.l2.tags.ageTaskId_1024::2                 7065                       # Occupied blocks per task id, per block age (Count)
system.l2.tags.ageTaskId_1024::3                 8537                       # Occupied blocks per task id, per block age (Count)
system.l2.tags.ratioOccsTaskId::1024                1                       # Ratio of occupied blocks and all blocks, per task id (Ratio)
system.l2.tags.tagAccesses                    1478205                       # Number of tag accesses (Count)
system.l2.tags.dataAccesses                   1478205                       # Number of data accesses (Count)
system.l2.tags.power_state.pwrStateResidencyTicks::UNDEFINED  13070641500                       # Cumulative time (in ticks) in various power states (Tick)
system.membus.transDist::ReadReq                63394                       # Transaction distribution (Count)
system.membus.transDist::ReadResp               65932                       # Transaction distribution (Count)
system.membus.transDist::WriteReq                2207                       # Transaction distribution (Count)
system.membus.transDist::WriteResp               2207                       # Transaction distribution (Count)
system.membus.transDist::WritebackDirty         66957                       # Transaction distribution (Count)
system.membus.transDist::WritebackClean          1922                       # Transaction distribution (Count)
system.membus.transDist::UpgradeReq                 2                       # Transaction distribution (Count)
system.membus.transDist::UpgradeResp                2                       # Transaction distribution (Count)
system.membus.transDist::ReadExReq              83174                       # Transaction distribution (Count)
system.membus.transDist::ReadExResp             83174                       # Transaction distribution (Count)
system.membus.transDist::ReadSharedReq           2538                       # Transaction distribution (Count)
system.membus.pktCount_system.l2.mem_side_port::system.bridge.cpu_side_port       131202                       # Packet count per connected requestor and responder (Count)
system.membus.pktCount_system.l2.mem_side_port::system.memsubsystem0.bridge.cpu_side_port       191016                       # Packet count per connected requestor and responder (Count)
system.membus.pktCount_system.l2.mem_side_port::system.memsubsystem1.bridge.cpu_side_port        49291                       # Packet count per connected requestor and responder (Count)
system.membus.pktCount_system.l2.mem_side_port::total       371509                       # Packet count per connected requestor and responder (Count)
system.membus.pktCount::total                  371509                       # Packet count per connected requestor and responder (Count)
system.membus.pktSize_system.l2.mem_side_port::system.bridge.cpu_side_port        90397                       # Cumulative packet size per connected requestor and responder (Byte)
system.membus.pktSize_system.l2.mem_side_port::system.memsubsystem0.bridge.cpu_side_port      7802240                       # Cumulative packet size per connected requestor and responder (Byte)
system.membus.pktSize_system.l2.mem_side_port::system.memsubsystem1.bridge.cpu_side_port      2091584                       # Cumulative packet size per connected requestor and responder (Byte)
system.membus.pktSize_system.l2.mem_side_port::total      9984221                       # Cumulative packet size per connected requestor and responder (Byte)
system.membus.pktSize::total                  9984221                       # Cumulative packet size per connected requestor and responder (Byte)
system.membus.snoops                                0                       # Total snoops (Count)
system.membus.snoopTraffic                          0                       # Total snoop traffic (Byte)
system.membus.snoopFanout::samples             151315                       # Request fanout histogram
system.membus.snoopFanout::mean                     0                       # Request fanout histogram
system.membus.snoopFanout::stdev                    0                       # Request fanout histogram
system.membus.snoopFanout::underflows               0      0.00%      0.00% # Request fanout histogram
system.membus.snoopFanout::0                   151315    100.00%    100.00% # Request fanout histogram
system.membus.snoopFanout::1                        0      0.00%    100.00% # Request fanout histogram
system.membus.snoopFanout::2                        0      0.00%    100.00% # Request fanout histogram
system.membus.snoopFanout::overflows                0      0.00%    100.00% # Request fanout histogram
system.membus.snoopFanout::min_value                0                       # Request fanout histogram
system.membus.snoopFanout::max_value                0                       # Request fanout histogram
system.membus.snoopFanout::total               151315                       # Request fanout histogram
system.membus.badaddr_responder.power_state.pwrStateResidencyTicks::UNDEFINED  13070641500                       # Cumulative time (in ticks) in various power states (Tick)
system.membus.power_state.pwrStateResidencyTicks::UNDEFINED  13070641500                       # Cumulative time (in ticks) in various power states (Tick)
system.membus.snoop_filter.totRequests         154593                       # Total number of requests made to the snoop filter. (Count)
system.membus.snoop_filter.hitSingleRequests        68881                       # Number of requests hitting in the snoop filter with a single holder of the requested data. (Count)
system.membus.snoop_filter.hitMultiRequests            0                       # Number of requests hitting in the snoop filter with multiple (>1) holders of the requested data. (Count)
system.membus.snoop_filter.totSnoops                0                       # Total number of snoops made to the snoop filter. (Count)
system.membus.snoop_filter.hitSingleSnoops            0                       # Number of snoops hitting in the snoop filter with a single holder of the requested data. (Count)
system.membus.snoop_filter.hitMultiSnoops            0                       # Number of snoops hitting in the snoop filter with multiple (>1) holders of the requested data. (Count)
system.memsubsystem0.bridge.power_state.pwrStateResidencyTicks::UNDEFINED  13070641500                       # Cumulative time (in ticks) in various power states (Tick)
system.memsubsystem0.mem_ctrls0.priorityMinLatency 0.000000000000                       # per QoS priority minimum request to response latency (Second)
system.memsubsystem0.mem_ctrls0.priorityMaxLatency 0.000000000000                       # per QoS priority maximum request to response latency (Second)
system.memsubsystem0.mem_ctrls0.numReadWriteTurnArounds            0                       # Number of turnarounds from READ to WRITE (Count)
system.memsubsystem0.mem_ctrls0.numWriteReadTurnArounds            0                       # Number of turnarounds from WRITE to READ (Count)
system.memsubsystem0.mem_ctrls0.numStayReadState            0                       # Number of times bus staying in READ state (Count)
system.memsubsystem0.mem_ctrls0.numStayWriteState            0                       # Number of times bus staying in WRITE state (Count)
system.memsubsystem0.mem_ctrls0.readReqs            0                       # Number of read requests accepted (Count)
system.memsubsystem0.mem_ctrls0.writeReqs            0                       # Number of write requests accepted (Count)
system.memsubsystem0.mem_ctrls0.readBursts            0                       # Number of controller read bursts, including those serviced by the write queue (Count)
system.memsubsystem0.mem_ctrls0.writeBursts            0                       # Number of controller write bursts, including those merged in the write queue (Count)
[...]
system.memsubsystem1.mem_ctrls.dram.totBusLat            0                       # Total ticks spent in databus transfers (Tick)
system.memsubsystem1.mem_ctrls.dram.totMemAccLat            0                       # Total ticks spent from burst creation until serviced by the DRAM (Tick)
system.memsubsystem1.mem_ctrls.dram.avgQLat          nan                       # Average queueing delay per DRAM burst ((Tick/Count))
system.memsubsystem1.mem_ctrls.dram.avgBusLat          nan                       # Average bus latency per DRAM burst ((Tick/Count))
system.memsubsystem1.mem_ctrls.dram.avgMemAccLat          nan                       # Average memory access latency per DRAM burst ((Tick/Count))
system.memsubsystem1.mem_ctrls.dram.readRowHits            0                       # Number of row buffer hits during reads (Count)
system.memsubsystem1.mem_ctrls.dram.writeRowHits            0                       # Number of row buffer hits during writes (Count)
system.memsubsystem1.mem_ctrls.dram.readRowHitRate          nan                       # Row buffer hit rate for reads (Ratio)
system.memsubsystem1.mem_ctrls.dram.writeRowHitRate          nan                       # Row buffer hit rate for writes (Ratio)
system.memsubsystem1.mem_ctrls.dram.bytesRead            0                       # Total number of bytes read from DRAM (Byte)
system.memsubsystem1.mem_ctrls.dram.bytesWritten            0                       # Total number of bytes written to DRAM (Byte)
system.memsubsystem1.mem_ctrls.dram.avgRdBW            0                       # Average DRAM read bandwidth in MiBytes/s ((Byte/Second))
system.memsubsystem1.mem_ctrls.dram.avgWrBW            0                       # Average DRAM write bandwidth in MiBytes/s ((Byte/Second))
system.memsubsystem1.mem_ctrls.dram.peakBW    153846.00                       # Theoretical peak bandwidth in MiByte/s ((Byte/Second))
system.memsubsystem1.mem_ctrls.dram.busUtil         0.00                       # Data bus utilization in percentage (Ratio)
system.memsubsystem1.mem_ctrls.dram.busUtilRead         0.00                       # Data bus utilization in percentage for reads (Ratio)
system.memsubsystem1.mem_ctrls.dram.busUtilWrite         0.00                       # Data bus utilization in percentage for writes (Ratio)
system.memsubsystem1.mem_ctrls.dram.pageHitRate          nan                       # Row buffer hit rate, read and write combined (Ratio)
system.memsubsystem1.mem_ctrls.dram.power_state.pwrStateResidencyTicks::UNDEFINED  13070641500                       # Cumulative time (in ticks) in various power states (Tick)
system.memsubsystem1.mem_ctrls.dram.rank0.actEnergy            0                       # Energy for activate commands per rank (pJ) (Joule)
system.memsubsystem1.mem_ctrls.dram.rank0.preEnergy            0                       # Energy for precharge commands per rank (pJ) (Joule)
system.memsubsystem1.mem_ctrls.dram.rank0.readEnergy            0                       # Energy for read commands per rank (pJ) (Joule)
system.memsubsystem1.mem_ctrls.dram.rank0.writeEnergy            0                       # Energy for write commands per rank (pJ) (Joule)
system.memsubsystem1.mem_ctrls.dram.rank0.refreshEnergy            0                       # Energy for refresh commands per rank (pJ) (Joule)
system.memsubsystem1.mem_ctrls.dram.rank0.actBackEnergy            0                       # Energy for active background per rank (pJ) (Joule)
system.memsubsystem1.mem_ctrls.dram.rank0.preBackEnergy 34171081010.035198                       # Energy for precharge background per rank (pJ) (Joule)
system.memsubsystem1.mem_ctrls.dram.rank0.actPowerDownEnergy            0                       # Energy for active power-down per rank (pJ) (Joule)
system.memsubsystem1.mem_ctrls.dram.rank0.prePowerDownEnergy            0                       # Energy for precharge power-down per rank (pJ) (Joule)
system.memsubsystem1.mem_ctrls.dram.rank0.selfRefreshEnergy            0                       # Energy for self refresh per rank (pJ) (Joule)
system.memsubsystem1.mem_ctrls.dram.rank0.totalEnergy 34171081010.035198                       # Total energy per rank (pJ) (Joule)
system.memsubsystem1.mem_ctrls.dram.rank0.averagePower  2614.338478                       # Core power per rank (mW) (Watt)
system.memsubsystem1.mem_ctrls.dram.rank0.totalIdleTime            0                       # Total Idle time Per DRAM Rank (Tick)
system.memsubsystem1.mem_ctrls.dram.rank0.pwrStateTime::IDLE  13070641500                       # Time in different power states (Tick)
system.memsubsystem1.mem_ctrls.dram.rank0.pwrStateTime::REF            0                       # Time in different power states (Tick)
system.memsubsystem1.mem_ctrls.dram.rank0.pwrStateTime::SREF            0                       # Time in different power states (Tick)
system.memsubsystem1.mem_ctrls.dram.rank0.pwrStateTime::PRE_PDN            0                       # Time in different power states (Tick)
system.memsubsystem1.mem_ctrls.dram.rank0.pwrStateTime::ACT            0                       # Time in different power states (Tick)
system.memsubsystem1.mem_ctrls.dram.rank0.pwrStateTime::ACT_PDN            0                       # Time in different power states (Tick)
system.memsubsystem1.mem_ctrls.dram.rank1.actEnergy            0                       # Energy for activate commands per rank (pJ) (Joule)
system.memsubsystem1.mem_ctrls.dram.rank1.preEnergy            0                       # Energy for precharge commands per rank (pJ) (Joule)
system.memsubsystem1.mem_ctrls.dram.rank1.readEnergy            0                       # Energy for read commands per rank (pJ) (Joule)
system.memsubsystem1.mem_ctrls.dram.rank1.writeEnergy            0                       # Energy for write commands per rank (pJ) (Joule)
system.memsubsystem1.mem_ctrls.dram.rank1.refreshEnergy            0                       # Energy for refresh commands per rank (pJ) (Joule)
system.memsubsystem1.mem_ctrls.dram.rank1.actBackEnergy            0                       # Energy for active background per rank (pJ) (Joule)
system.memsubsystem1.mem_ctrls.dram.rank1.preBackEnergy 34171081010.035198                       # Energy for precharge background per rank (pJ) (Joule)
system.memsubsystem1.mem_ctrls.dram.rank1.actPowerDownEnergy            0                       # Energy for active power-down per rank (pJ) (Joule)
system.memsubsystem1.mem_ctrls.dram.rank1.prePowerDownEnergy            0                       # Energy for precharge power-down per rank (pJ) (Joule)
system.memsubsystem1.mem_ctrls.dram.rank1.selfRefreshEnergy            0                       # Energy for self refresh per rank (pJ) (Joule)
system.memsubsystem1.mem_ctrls.dram.rank1.totalEnergy 34171081010.035198                       # Total energy per rank (pJ) (Joule)
system.memsubsystem1.mem_ctrls.dram.rank1.averagePower  2614.338478                       # Core power per rank (mW) (Watt)
system.memsubsystem1.mem_ctrls.dram.rank1.totalIdleTime            0                       # Total Idle time Per DRAM Rank (Tick)
system.memsubsystem1.mem_ctrls.dram.rank1.pwrStateTime::IDLE  13070641500                       # Time in different power states (Tick)
system.memsubsystem1.mem_ctrls.dram.rank1.pwrStateTime::REF            0                       # Time in different power states (Tick)
system.memsubsystem1.mem_ctrls.dram.rank1.pwrStateTime::SREF            0                       # Time in different power states (Tick)
system.memsubsystem1.mem_ctrls.dram.rank1.pwrStateTime::PRE_PDN            0                       # Time in different power states (Tick)
system.memsubsystem1.mem_ctrls.dram.rank1.pwrStateTime::ACT            0                       # Time in different power states (Tick)
system.memsubsystem1.mem_ctrls.dram.rank1.pwrStateTime::ACT_PDN            0                       # Time in different power states (Tick)
system.memsubsystem1.mem_ctrls.power_state.pwrStateResidencyTicks::UNDEFINED  13070641500                       # Cumulative time (in ticks) in various power states (Tick)
system.memsubsystem1.xbar.transDist::ReadResp         2518                       # Transaction distribution (Count)
system.memsubsystem1.xbar.transDist::WritebackDirty        14153                       # Transaction distribution (Count)
system.memsubsystem1.xbar.transDist::WritebackClean         1922                       # Transaction distribution (Count)
system.memsubsystem1.xbar.transDist::ReadExReq        14088                       # Transaction distribution (Count)
system.memsubsystem1.xbar.transDist::ReadExResp        14088                       # Transaction distribution (Count)
system.memsubsystem1.xbar.transDist::ReadSharedReq         2518                       # Transaction distribution (Count)
system.memsubsystem1.xbar.pktCount_system.memsubsystem1.bridge.mem_side_port::system.memsubsystem1.mem_ctrls.port        49287                       # Packet count per connected requestor and responder (Count)
system.memsubsystem1.xbar.pktCount_system.memsubsystem1.bridge.mem_side_port::total        49287                       # Packet count per connected requestor and responder (Count)
system.memsubsystem1.xbar.pktSize_system.memsubsystem1.bridge.mem_side_port::system.memsubsystem1.mem_ctrls.port      2091584                       # Cumulative packet size per connected requestor and responder (Byte)
system.memsubsystem1.xbar.pktSize_system.memsubsystem1.bridge.mem_side_port::total      2091584                       # Cumulative packet size per connected requestor and responder (Byte)
system.memsubsystem1.xbar.badaddr_responder.power_state.pwrStateResidencyTicks::UNDEFINED  13070641500                       # Cumulative time (in ticks) in various power states (Tick)
system.memsubsystem1.xbar.power_state.pwrStateResidencyTicks::UNDEFINED  13070641500                       # Cumulative time (in ticks) in various power states (Tick)
system.memsubsystem1.xbar_clk_domain.clock        10000                       # Clock period in ticks (Tick)
system.memsubsystem1.xbar_clk_domain.voltage_domain.voltage            1                       # Voltage in Volts (Volt)
system.pc.bad_addr.power_state.pwrStateResidencyTicks::UNDEFINED  13070641500                       # Cumulative time (in ticks) in various power states (Tick)
system.pc.com_1.power_state.pwrStateResidencyTicks::UNDEFINED  13070641500                       # Cumulative time (in ticks) in various power states (Tick)
system.pc.default_bus.power_state.pwrStateResidencyTicks::UNDEFINED  13070641500                       # Cumulative time (in ticks) in various power states (Tick)
system.pc.empty_isa.power_state.pwrStateResidencyTicks::UNDEFINED  13070641500                       # Cumulative time (in ticks) in various power states (Tick)
system.pc.fake_com_2.power_state.pwrStateResidencyTicks::UNDEFINED  13070641500                       # Cumulative time (in ticks) in various power states (Tick)
system.pc.fake_com_3.power_state.pwrStateResidencyTicks::UNDEFINED  13070641500                       # Cumulative time (in ticks) in various power states (Tick)
system.pc.fake_com_4.power_state.pwrStateResidencyTicks::UNDEFINED  13070641500                       # Cumulative time (in ticks) in various power states (Tick)
system.pc.fake_floppy.power_state.pwrStateResidencyTicks::UNDEFINED  13070641500                       # Cumulative time (in ticks) in various power states (Tick)
system.pc.pci_host.power_state.pwrStateResidencyTicks::UNDEFINED  13070641500                       # Cumulative time (in ticks) in various power states (Tick)
system.pc.south_bridge.cmos.power_state.pwrStateResidencyTicks::UNDEFINED  13070641500                       # Cumulative time (in ticks) in various power states (Tick)
system.pc.south_bridge.dma1.power_state.pwrStateResidencyTicks::UNDEFINED  13070641500                       # Cumulative time (in ticks) in various power states (Tick)
system.pc.south_bridge.ide.disks.IdeDisk.dmaReadFullPages            0                       # Number of full page size DMA reads (not PRD). (Count)
system.pc.south_bridge.ide.disks.IdeDisk.dmaReadBytes            0                       # Number of bytes transfered via DMA reads (not PRD). (Byte)
system.pc.south_bridge.ide.disks.IdeDisk.dmaReadTxs            0                       # Number of DMA read transactions (not PRD). (Count)
system.pc.south_bridge.ide.disks.IdeDisk.dmaWriteFullPages            0                       # Number of full page size DMA writes. (Count)
system.pc.south_bridge.ide.disks.IdeDisk.dmaWriteBytes            0                       # Number of bytes transfered via DMA writes. (Byte)
system.pc.south_bridge.ide.disks.IdeDisk.dmaWriteTxs            0                       # Number of DMA write transactions. (Count)
system.pc.south_bridge.ide.power_state.pwrStateResidencyTicks::UNDEFINED  13070641500                       # Cumulative time (in ticks) in various power states (Tick)
system.pc.south_bridge.io_apic.power_state.pwrStateResidencyTicks::UNDEFINED  13070641500                       # Cumulative time (in ticks) in various power states (Tick)
system.pc.south_bridge.keyboard.power_state.pwrStateResidencyTicks::UNDEFINED  13070641500                       # Cumulative time (in ticks) in various power states (Tick)
system.pc.south_bridge.pic1.power_state.pwrStateResidencyTicks::UNDEFINED  13070641500                       # Cumulative time (in ticks) in various power states (Tick)
system.pc.south_bridge.pic2.power_state.pwrStateResidencyTicks::UNDEFINED  13070641500                       # Cumulative time (in ticks) in various power states (Tick)
system.pc.south_bridge.pit.power_state.pwrStateResidencyTicks::UNDEFINED  13070641500                       # Cumulative time (in ticks) in various power states (Tick)
system.pc.south_bridge.speaker.power_state.pwrStateResidencyTicks::UNDEFINED  13070641500                       # Cumulative time (in ticks) in various power states (Tick)
system.tol2bus.transDist::ReadReq               64460                       # Transaction distribution (Count)
system.tol2bus.transDist::ReadResp              67840                       # Transaction distribution (Count)
system.tol2bus.transDist::WriteReq               2209                       # Transaction distribution (Count)
system.tol2bus.transDist::WriteResp              2209                       # Transaction distribution (Count)
system.tol2bus.transDist::WritebackDirty        83682                       # Transaction distribution (Count)
system.tol2bus.transDist::WritebackClean         2378                       # Transaction distribution (Count)
system.tol2bus.transDist::UpgradeReq              140                       # Transaction distribution (Count)
system.tol2bus.transDist::UpgradeResp             140                       # Transaction distribution (Count)
system.tol2bus.transDist::ReadExReq             83661                       # Transaction distribution (Count)
system.tol2bus.transDist::ReadExResp            83661                       # Transaction distribution (Count)
system.tol2bus.transDist::ReadCleanReq           1136                       # Transaction distribution (Count)
system.tol2bus.transDist::ReadSharedReq          2244                       # Transaction distribution (Count)
system.tol2bus.pktCount_system.cpu.icache.mem_side_port::system.l2.cpu_side_port         2939                       # Packet count per connected requestor and responder (Count)
system.tol2bus.pktCount_system.cpu.dcache.mem_side_port::system.l2.cpu_side_port       388685                       # Packet count per connected requestor and responder (Count)
system.tol2bus.pktCount_system.cpu.mmu.itb.walker.port::system.l2.cpu_side_port          478                       # Packet count per connected requestor and responder (Count)
system.tol2bus.pktCount_system.cpu.mmu.dtb.walker.port::system.l2.cpu_side_port         1658                       # Packet count per connected requestor and responder (Count)
system.tol2bus.pktCount::total                 393760                       # Packet count per connected requestor and responder (Count)
system.tol2bus.pktSize_system.cpu.icache.mem_side_port::system.l2.cpu_side_port       115392                       # Cumulative packet size per connected requestor and responder (Byte)
system.tol2bus.pktSize_system.cpu.dcache.mem_side_port::system.l2.cpu_side_port     11053469                       # Cumulative packet size per connected requestor and responder (Byte)
system.tol2bus.pktSize_system.cpu.mmu.itb.walker.port::system.l2.cpu_side_port         1912                       # Cumulative packet size per connected requestor and responder (Byte)
system.tol2bus.pktSize_system.cpu.mmu.dtb.walker.port::system.l2.cpu_side_port         6632                       # Cumulative packet size per connected requestor and responder (Byte)
system.tol2bus.pktSize::total                11177405                       # Cumulative packet size per connected requestor and responder (Byte)
system.tol2bus.snoops                           69381                       # Total snoops (Count)
system.tol2bus.snoopTraffic                   4440384                       # Total snoop traffic (Byte)
system.tol2bus.snoopFanout::samples            223231                       # Request fanout histogram
system.tol2bus.snoopFanout::mean             0.003396                       # Request fanout histogram
system.tol2bus.snoopFanout::stdev            0.058173                       # Request fanout histogram
system.tol2bus.snoopFanout::underflows              0      0.00%      0.00% # Request fanout histogram
system.tol2bus.snoopFanout::0                  222473     99.66%     99.66% # Request fanout histogram
system.tol2bus.snoopFanout::1                     758      0.34%    100.00% # Request fanout histogram
system.tol2bus.snoopFanout::2                       0      0.00%    100.00% # Request fanout histogram
system.tol2bus.snoopFanout::overflows               0      0.00%    100.00% # Request fanout histogram
system.tol2bus.snoopFanout::min_value               0                       # Request fanout histogram
system.tol2bus.snoopFanout::max_value               1                       # Request fanout histogram
system.tol2bus.snoopFanout::total              223231                       # Request fanout histogram
system.tol2bus.power_state.pwrStateResidencyTicks::UNDEFINED  13070641500                       # Cumulative time (in ticks) in various power states (Tick)
system.tol2bus.snoop_filter.totRequests        173497                       # Total number of requests made to the snoop filter. (Count)
system.tol2bus.snoop_filter.hitSingleRequests        86456                       # Number of requests hitting in the snoop filter with a single holder of the requested data. (Count)
system.tol2bus.snoop_filter.hitMultiRequests            0                       # Number of requests hitting in the snoop filter with multiple (>1) holders of the requested data. (Count)
system.tol2bus.snoop_filter.totSnoops             502                       # Total number of snoops made to the snoop filter. (Count)
system.tol2bus.snoop_filter.hitSingleSnoops          502                       # Number of snoops hitting in the snoop filter with a single holder of the requested data. (Count)
system.tol2bus.snoop_filter.hitMultiSnoops            0                       # Number of snoops hitting in the snoop filter with multiple (>1) holders of the requested data. (Count)
system.voltage_domain.voltage                       1                       # Voltage in Volts (Volt)
system.workload.inst.arm                            0                       # number of arm instructions executed (Count)
system.workload.inst.quiesce                        0                       # number of quiesce instructions executed (Count)

---------- End Simulation Statistics   ----------
