
---------- Begin Simulation Statistics ----------
simSeconds                                   0.005219                       # Number of seconds simulated (Second)
simTicks                                   5218708500                       # Number of ticks simulated (Tick)
finalTick                                  5218708500                       # Number of ticks from beginning of simulation (restored from checkpoints and never reset) (Tick)
simFreq                                  1000000000000                       # The number of ticks per simulated second ((Tick/Second))
hostSeconds                                     20.58                       # Real time elapsed on the host (Second)
hostTickRate                                253582013                       # The number of ticks simulated per host second (ticks/s) ((Tick/Second))
hostMemory                                   17359216                       # Number of bytes of host memory used (Byte)
simInsts                                     15518034                       # Number of instructions simulated (Count)
simOps                                       36577979                       # Number of ops (including micro ops) simulated (Count)
hostInstRate                                   754030                       # Simulator instruction rate (inst/s) ((Count/Second))
hostOpRate                                    1777343                       # Simulator op (including micro ops) rate (op/s) ((Count/Second))
pim_system0.clk_domain.clock                     1000                       # Clock period in ticks (Tick)
pim_system0.cpu.numCycles                     7824151                       # Number of cpu cycles simulated (Cycle)
pim_system0.cpu.numWorkItemsStarted                 0                       # Number of work items this cpu started (Count)
pim_system0.cpu.numWorkItemsCompleted               0                       # Number of work items this cpu completed (Count)
pim_system0.cpu.exec_context.thread_0.numInsts      3353281                       # Number of instructions committed (Count)
pim_system0.cpu.exec_context.thread_0.numOps      6706559                       # Number of ops (including micro ops) committed (Count)
pim_system0.cpu.exec_context.thread_0.numIntAluAccesses      6706559                       # Number of integer alu accesses (Count)
pim_system0.cpu.exec_context.thread_0.numFpAluAccesses            0                       # Number of float alu accesses (Count)
pim_system0.cpu.exec_context.thread_0.numVecAluAccesses            0                       # Number of vector alu accesses (Count)
pim_system0.cpu.exec_context.thread_0.numCallsReturns            0                       # Number of times a function call or return occured (Count)
pim_system0.cpu.exec_context.thread_0.numCondCtrlInsts      1117585                       # Number of instructions that are conditional controls (Count)
pim_system0.cpu.exec_context.thread_0.numIntInsts      6706559                       # Number of integer instructions (Count)
pim_system0.cpu.exec_context.thread_0.numFpInsts            0                       # Number of float instructions (Count)
pim_system0.cpu.exec_context.thread_0.numVecInsts            0                       # Number of vector instructions (Count)
pim_system0.cpu.exec_context.thread_0.numIntRegReads     13411077                       # Number of times the integer registers were read (Count)
pim_system0.cpu.exec_context.thread_0.numIntRegWrites      5588453                       # Number of times the integer registers were written (Count)
pim_system0.cpu.exec_context.thread_0.numFpRegReads            0                       # Number of times the floating registers were read (Count)
pim_system0.cpu.exec_context.thread_0.numFpRegWrites            0                       # Number of times the floating registers were written (Count)
pim_system0.cpu.exec_context.thread_0.numVecRegReads            0                       # Number of times the vector registers were read (Count)
pim_system0.cpu.exec_context.thread_0.numVecRegWrites            0                       # Number of times the vector registers were written (Count)
pim_system0.cpu.exec_context.thread_0.numVecPredRegReads            0                       # Number of times the predicate registers were read (Count)
pim_system0.cpu.exec_context.thread_0.numVecPredRegWrites            0                       # Number of times the predicate registers were written (Count)
pim_system0.cpu.exec_context.thread_0.numCCRegReads      6704999                       # Number of times the CC registers were read (Count)
pim_system0.cpu.exec_context.thread_0.numCCRegWrites      2236194                       # Number of times the CC registers were written (Count)
pim_system0.cpu.exec_context.thread_0.numMemRefs      1117596                       # Number of memory refs (Count)
pim_system0.cpu.exec_context.thread_0.numLoadInsts      1117075                       # Number of load instructions (Count)
pim_system0.cpu.exec_context.thread_0.numStoreInsts          521                       # Number of store instructions (Count)
pim_system0.cpu.exec_context.thread_0.numIdleCycles            0                       # Number of idle cycles (Cycle)
pim_system0.cpu.exec_context.thread_0.numBusyCycles      7824151                       # Number of busy cycles (Cycle)
pim_system0.cpu.exec_context.thread_0.notIdleFraction            1                       # Percentage of non-idle cycles (Ratio)
pim_system0.cpu.exec_context.thread_0.idleFraction            0                       # Percentage of idle cycles (Ratio)
pim_system0.cpu.exec_context.thread_0.numBranches      1117585                       # Number of branches fetched (Count)
pim_system0.cpu.exec_context.thread_0.statExecutedInstType::No_OpClass            0      0.00%      0.00% # Class of executed instruction. (Count)
pim_system0.cpu.exec_context.thread_0.statExecutedInstType::IntAlu      5588963     83.34%     83.34% # Class of executed instruction. (Count)
pim_system0.cpu.exec_context.thread_0.statExecutedInstType::IntMult            0      0.00%     83.34% # Class of executed instruction. (Count)
pim_system0.cpu.exec_context.thread_0.statExecutedInstType::IntDiv            0      0.00%     83.34% # Class of executed instruction. (Count)
pim_system0.cpu.exec_context.thread_0.statExecutedInstType::FloatAdd            0      0.00%     83.34% # Class of executed instruction. (Count)
pim_system0.cpu.exec_context.thread_0.statExecutedInstType::FloatCmp            0      0.00%     83.34% # Class of executed instruction. (Count)
pim_system0.cpu.exec_context.thread_0.statExecutedInstType::FloatCvt            0      0.00%     83.34% # Class of executed instruction. (Count)
pim_system0.cpu.exec_context.thread_0.statExecutedInstType::FloatMult            0      0.00%     83.34% # Class of executed instruction. (Count)
pim_system0.cpu.exec_context.thread_0.statExecutedInstType::FloatMultAcc            0      0.00%     83.34% # Class of executed instruction. (Count)
pim_system0.cpu.exec_context.thread_0.statExecutedInstType::FloatDiv            0      0.00%     83.34% # Class of executed instruction. (Count)
pim_system0.cpu.exec_context.thread_0.statExecutedInstType::FloatMisc            0      0.00%     83.34% # Class of executed instruction. (Count)
pim_system0.cpu.exec_context.thread_0.statExecutedInstType::FloatSqrt            0      0.00%     83.34% # Class of executed instruction. (Count)
pim_system0.cpu.exec_context.thread_0.statExecutedInstType::SimdAdd            0      0.00%     83.34% # Class of executed instruction. (Count)
pim_system0.cpu.exec_context.thread_0.statExecutedInstType::SimdAddAcc            0      0.00%     83.34% # Class of executed instruction. (Count)
pim_system0.cpu.exec_context.thread_0.statExecutedInstType::SimdAlu            0      0.00%     83.34% # Class of executed instruction. (Count)
pim_system0.cpu.exec_context.thread_0.statExecutedInstType::SimdCmp            0      0.00%     83.34% # Class of executed instruction. (Count)
pim_system0.cpu.exec_context.thread_0.statExecutedInstType::SimdCvt            0      0.00%     83.34% # Class of executed instruction. (Count)
pim_system0.cpu.exec_context.thread_0.statExecutedInstType::SimdMisc            0      0.00%     83.34% # Class of executed instruction. (Count)
pim_system0.cpu.exec_context.thread_0.statExecutedInstType::SimdMult            0      0.00%     83.34% # Class of executed instruction. (Count)
pim_system0.cpu.exec_context.thread_0.statExecutedInstType::SimdMultAcc            0      0.00%     83.34% # Class of executed instruction. (Count)
pim_system0.cpu.exec_context.thread_0.statExecutedInstType::SimdShift            0      0.00%     83.34% # Class of executed instruction. (Count)
pim_system0.cpu.exec_context.thread_0.statExecutedInstType::SimdShiftAcc            0      0.00%     83.34% # Class of executed instruction. (Count)
pim_system0.cpu.exec_context.thread_0.statExecutedInstType::SimdDiv            0      0.00%     83.34% # Class of executed instruction. (Count)
pim_system0.cpu.exec_context.thread_0.statExecutedInstType::SimdSqrt            0      0.00%     83.34% # Class of executed instruction. (Count)
pim_system0.cpu.exec_context.thread_0.statExecutedInstType::SimdFloatAdd            0      0.00%     83.34% # Class of executed instruction. (Count)
pim_system0.cpu.exec_context.thread_0.statExecutedInstType::SimdFloatAlu            0      0.00%     83.34% # Class of executed instruction. (Count)
pim_system0.cpu.exec_context.thread_0.statExecutedInstType::SimdFloatCmp            0      0.00%     83.34% # Class of executed instruction. (Count)
pim_system0.cpu.exec_context.thread_0.statExecutedInstType::SimdFloatCvt            0      0.00%     83.34% # Class of executed instruction. (Count)
pim_system0.cpu.exec_context.thread_0.statExecutedInstType::SimdFloatDiv            0      0.00%     83.34% # Class of executed instruction. (Count)
pim_system0.cpu.exec_context.thread_0.statExecutedInstType::SimdFloatMisc            0      0.00%     83.34% # Class of executed instruction. (Count)
pim_system0.cpu.exec_context.thread_0.statExecutedInstType::SimdFloatMult            0      0.00%     83.34% # Class of executed instruction. (Count)
pim_system0.cpu.exec_context.thread_0.statExecutedInstType::SimdFloatMultAcc            0      0.00%     83.34% # Class of executed instruction. (Count)
pim_system0.cpu.exec_context.thread_0.statExecutedInstType::SimdFloatSqrt            0      0.00%     83.34% # Class of executed instruction. (Count)
pim_system0.cpu.exec_context.thread_0.statExecutedInstType::SimdReduceAdd            0      0.00%     83.34% # Class of executed instruction. (Count)
pim_system0.cpu.exec_context.thread_0.statExecutedInstType::SimdReduceAlu            0      0.00%     83.34% # Class of executed instruction. (Count)
pim_system0.cpu.exec_context.thread_0.statExecutedInstType::SimdReduceCmp            0      0.00%     83.34% # Class of executed instruction. (Count)
pim_system0.cpu.exec_context.thread_0.statExecutedInstType::SimdFloatReduceAdd            0      0.00%     83.34% # Class of executed instruction. (Count)
pim_system0.cpu.exec_context.thread_0.statExecutedInstType::SimdFloatReduceCmp            0      0.00%     83.34% # Class of executed instruction. (Count)
pim_system0.cpu.exec_context.thread_0.statExecutedInstType::SimdAes            0      0.00%     83.34% # Class of executed instruction. (Count)
pim_system0.cpu.exec_context.thread_0.statExecutedInstType::SimdAesMix            0      0.00%     83.34% # Class of executed instruction. (Count)
pim_system0.cpu.exec_context.thread_0.statExecutedInstType::SimdSha1Hash            0      0.00%     83.34% # Class of executed instruction. (Count)
pim_system0.cpu.exec_context.thread_0.statExecutedInstType::SimdSha1Hash2            0      0.00%     83.34% # Class of executed instruction. (Count)
pim_system0.cpu.exec_context.thread_0.statExecutedInstType::SimdSha256Hash            0      0.00%     83.34% # Class of executed instruction. (Count)
pim_system0.cpu.exec_context.thread_0.statExecutedInstType::SimdSha256Hash2            0      0.00%     83.34% # Class of executed instruction. (Count)
pim_system0.cpu.exec_context.thread_0.statExecutedInstType::SimdShaSigma2            0      0.00%     83.34% # Class of executed instruction. (Count)
pim_system0.cpu.exec_context.thread_0.statExecutedInstType::SimdShaSigma3            0      0.00%     83.34% # Class of executed instruction. (Count)
pim_system0.cpu.exec_context.thread_0.statExecutedInstType::SimdPredAlu            0      0.00%     83.34% # Class of executed instruction. (Count)
pim_system0.cpu.exec_context.thread_0.statExecutedInstType::MemRead      1117075     16.66%     99.99% # Class of executed instruction. (Count)
pim_system0.cpu.exec_context.thread_0.statExecutedInstType::MemWrite          521      0.01%    100.00% # Class of executed instruction. (Count)
pim_system0.cpu.exec_context.thread_0.statExecutedInstType::FloatMemRead            0      0.00%    100.00% # Class of executed instruction. (Count)
pim_system0.cpu.exec_context.thread_0.statExecutedInstType::FloatMemWrite            0      0.00%    100.00% # Class of executed instruction. (Count)
pim_system0.cpu.exec_context.thread_0.statExecutedInstType::IprAccess            0      0.00%    100.00% # Class of executed instruction. (Count)
pim_system0.cpu.exec_context.thread_0.statExecutedInstType::InstPrefetch            0      0.00%    100.00% # Class of executed instruction. (Count)
pim_system0.cpu.exec_context.thread_0.statExecutedInstType::total      6706559                       # Class of executed instruction. (Count)
pim_system0.cpu.interrupts.clk_domain.clock        10672                       # Clock period in ticks (Tick)
pim_system0.cpu.mmu.dtb.rdAccesses            1117075                       # TLB accesses on read requests (Count)
pim_system0.cpu.mmu.dtb.wrAccesses                521                       # TLB accesses on write requests (Count)
pim_system0.cpu.mmu.dtb.rdMisses                    0                       # TLB misses on read requests (Count)
pim_system0.cpu.mmu.dtb.wrMisses                    2                       # TLB misses on write requests (Count)
pim_system0.cpu.mmu.dtb.walker.power_state.pwrStateResidencyTicks::UNDEFINED   5218708500                       # Cumulative time (in ticks) in various power states (Tick)
pim_system0.cpu.mmu.itb.rdAccesses                  0                       # TLB accesses on read requests (Count)
pim_system0.cpu.mmu.itb.wrAccesses            4470873                       # TLB accesses on write requests (Count)
pim_system0.cpu.mmu.itb.rdMisses                    0                       # TLB misses on read requests (Count)
pim_system0.cpu.mmu.itb.wrMisses                    1                       # TLB misses on write requests (Count)
pim_system0.cpu.mmu.itb.walker.power_state.pwrStateResidencyTicks::UNDEFINED   5218708500                       # Cumulative time (in ticks) in various power states (Tick)
pim_system0.cpu.power_state.pwrStateResidencyTicks::ON   5218708500                       # Cumulative time (in ticks) in various power states (Tick)
pim_system0.cpu.thread_0.numInsts                   0                       # Number of Instructions committed (Count)
pim_system0.cpu.thread_0.numOps                     0                       # Number of Ops committed (Count)
pim_system0.cpu.thread_0.numMemRefs                 0                       # Number of Memory References (Count)
pim_system0.cpu.workload.numSyscalls                0                       # Number of system calls (Count)
pim_system0.cpu_clk_domain.clock                  667                       # Clock period in ticks (Tick)
pim_system0.cpu_voltage_domain.voltage              1                       # Voltage in Volts (Volt)
pim_system0.pimbus.transDist::ReadReq         5587948                       # Transaction distribution (Count)
pim_system0.pimbus.transDist::ReadResp        5587948                       # Transaction distribution (Count)
pim_system0.pimbus.transDist::WriteReq            521                       # Transaction distribution (Count)
pim_system0.pimbus.transDist::WriteResp           521                       # Transaction distribution (Count)
pim_system0.pimbus.pktCount_pim_system0.cpu.icache_port::pim_system0.se_mem_ctrl.port      8941746                       # Packet count per connected requestor and responder (Count)
pim_system0.pimbus.pktCount_pim_system0.cpu.icache_port::total      8941746                       # Packet count per connected requestor and responder (Count)
pim_system0.pimbus.pktCount_pim_system0.cpu.dcache_port::pim_system0.spm.port      2235186                       # Packet count per connected requestor and responder (Count)
pim_system0.pimbus.pktCount_pim_system0.cpu.dcache_port::pim_system0.se_mem_ctrl.port            6                       # Packet count per connected requestor and responder (Count)
pim_system0.pimbus.pktCount_pim_system0.cpu.dcache_port::total      2235192                       # Packet count per connected requestor and responder (Count)
pim_system0.pimbus.pktCount::total           11176938                       # Packet count per connected requestor and responder (Count)
pim_system0.pimbus.pktSize_pim_system0.cpu.icache_port::pim_system0.se_mem_ctrl.port     35766984                       # Cumulative packet size per connected requestor and responder (Byte)
pim_system0.pimbus.pktSize_pim_system0.cpu.icache_port::total     35766984                       # Cumulative packet size per connected requestor and responder (Byte)
pim_system0.pimbus.pktSize_pim_system0.cpu.dcache_port::pim_system0.spm.port      1121170                       # Cumulative packet size per connected requestor and responder (Byte)
pim_system0.pimbus.pktSize_pim_system0.cpu.dcache_port::pim_system0.se_mem_ctrl.port           24                       # Cumulative packet size per connected requestor and responder (Byte)
pim_system0.pimbus.pktSize_pim_system0.cpu.dcache_port::total      1121194                       # Cumulative packet size per connected requestor and responder (Byte)
pim_system0.pimbus.pktSize::total            36888178                       # Cumulative packet size per connected requestor and responder (Byte)
pim_system0.pimbus.badaddr_responder.power_state.pwrStateResidencyTicks::UNDEFINED   5218708500                       # Cumulative time (in ticks) in various power states (Tick)
pim_system0.pimbus.power_state.pwrStateResidencyTicks::UNDEFINED   5218708500                       # Cumulative time (in ticks) in various power states (Tick)
pim_system0.se_mem_ctrl.bytesRead::pim_system0.cpu.inst     35766984                       # Number of bytes read from this memory (Byte)
pim_system0.se_mem_ctrl.bytesRead::total     35766984                       # Number of bytes read from this memory (Byte)
pim_system0.se_mem_ctrl.bytesInstRead::pim_system0.cpu.inst     35766984                       # Number of instructions bytes read from this memory (Byte)
pim_system0.se_mem_ctrl.bytesInstRead::total     35766984                       # Number of instructions bytes read from this memory (Byte)
pim_system0.se_mem_ctrl.bytesWritten::pim_system0.cpu.data           24                       # Number of bytes written to this memory (Byte)
pim_system0.se_mem_ctrl.bytesWritten::total           24                       # Number of bytes written to this memory (Byte)
pim_system0.se_mem_ctrl.numReads::pim_system0.cpu.inst      4470873                       # Number of read requests responded to by this memory (Count)
pim_system0.se_mem_ctrl.numReads::total       4470873                       # Number of read requests responded to by this memory (Count)
pim_system0.se_mem_ctrl.numWrites::pim_system0.cpu.data            3                       # Number of write requests responded to by this memory (Count)
pim_system0.se_mem_ctrl.numWrites::total            3                       # Number of write requests responded to by this memory (Count)
pim_system0.se_mem_ctrl.bwRead::pim_system0.cpu.inst   6853608321                       # Total read bandwidth from this memory ((Byte/Second))
pim_system0.se_mem_ctrl.bwRead::total      6853608321                       # Total read bandwidth from this memory ((Byte/Second))
pim_system0.se_mem_ctrl.bwInstRead::pim_system0.cpu.inst   6853608321                       # Instruction read bandwidth from this memory ((Byte/Second))
pim_system0.se_mem_ctrl.bwInstRead::total   6853608321                       # Instruction read bandwidth from this memory ((Byte/Second))
pim_system0.se_mem_ctrl.bwWrite::pim_system0.cpu.data         4599                       # Write bandwidth from this memory ((Byte/Second))
pim_system0.se_mem_ctrl.bwWrite::total           4599                       # Write bandwidth from this memory ((Byte/Second))
pim_system0.se_mem_ctrl.bwTotal::pim_system0.cpu.inst   6853608321                       # Total bandwidth to/from this memory ((Byte/Second))
pim_system0.se_mem_ctrl.bwTotal::pim_system0.cpu.data         4599                       # Total bandwidth to/from this memory ((Byte/Second))
pim_system0.se_mem_ctrl.bwTotal::total     6853612920                       # Total bandwidth to/from this memory ((Byte/Second))
pim_system0.se_mem_ctrl.power_state.pwrStateResidencyTicks::UNDEFINED   5218708500                       # Cumulative time (in ticks) in various power states (Tick)
pim_system0.spm.bytesRead::pim_system0.cpu.data      1117075                       # Number of bytes read from this memory (Byte)
pim_system0.spm.bytesRead::total              1117075                       # Number of bytes read from this memory (Byte)
pim_system0.spm.bytesWritten::pim_system0.cpu.data         4095                       # Number of bytes written to this memory (Byte)
pim_system0.spm.bytesWritten::total              4095                       # Number of bytes written to this memory (Byte)
pim_system0.spm.numReads::pim_system0.cpu.data      1117075                       # Number of read requests responded to by this memory (Count)
pim_system0.spm.numReads::total               1117075                       # Number of read requests responded to by this memory (Count)
pim_system0.spm.numWrites::pim_system0.cpu.data          518                       # Number of write requests responded to by this memory (Count)
pim_system0.spm.numWrites::total                  518                       # Number of write requests responded to by this memory (Count)
pim_system0.spm.bwRead::pim_system0.cpu.data    214052002                       # Total read bandwidth from this memory ((Byte/Second))
pim_system0.spm.bwRead::total               214052002                       # Total read bandwidth from this memory ((Byte/Second))
pim_system0.spm.bwWrite::pim_system0.cpu.data       784677                       # Write bandwidth from this memory ((Byte/Second))
pim_system0.spm.bwWrite::total                 784677                       # Write bandwidth from this memory ((Byte/Second))
pim_system0.spm.bwTotal::pim_system0.cpu.data    214836678                       # Total bandwidth to/from this memory ((Byte/Second))
pim_system0.spm.bwTotal::total              214836678                       # Total bandwidth to/from this memory ((Byte/Second))
pim_system0.spm.power_state.pwrStateResidencyTicks::UNDEFINED   5218708500                       # Cumulative time (in ticks) in various power states (Tick)
pim_system0.tohostbridge.power_state.pwrStateResidencyTicks::UNDEFINED   5218708500                       # Cumulative time (in ticks) in various power states (Tick)
pim_system0.voltage_domain.voltage                  1                       # Voltage in Volts (Volt)
pim_system0.workload.inst.arm                       0                       # number of arm instructions executed (Count)
pim_system0.workload.inst.quiesce                   0                       # number of quiesce instructions executed (Count)
pim_system1.clk_domain.clock                     1000                       # Clock period in ticks (Tick)
pim_system1.cpu.numCycles                     7824151                       # Number of cpu cycles simulated (Cycle)
pim_system1.cpu.numWorkItemsStarted                 0                       # Number of work items this cpu started (Count)
pim_system1.cpu.numWorkItemsCompleted               0                       # Number of work items this cpu completed (Count)
pim_system1.cpu.exec_context.thread_0.numInsts      3353281                       # Number of instructions committed (Count)
pim_system1.cpu.exec_context.thread_0.numOps      6706559                       # Number of ops (including micro ops) committed (Count)
pim_system1.cpu.exec_context.thread_0.numIntAluAccesses      6706559                       # Number of integer alu accesses (Count)
pim_system1.cpu.exec_context.thread_0.numFpAluAccesses            0                       # Number of float alu accesses (Count)
pim_system1.cpu.exec_context.thread_0.numVecAluAccesses            0                       # Number of vector alu accesses (Count)
pim_system1.cpu.exec_context.thread_0.numCallsReturns            0                       # Number of times a function call or return occured (Count)
pim_system1.cpu.exec_context.thread_0.numCondCtrlInsts      1117585                       # Number of instructions that are conditional controls (Count)
pim_system1.cpu.exec_context.thread_0.numIntInsts      6706559                       # Number of integer instructions (Count)
pim_system1.cpu.exec_context.thread_0.numFpInsts            0                       # Number of float instructions (Count)
pim_system1.cpu.exec_context.thread_0.numVecInsts            0                       # Number of vector instructions (Count)
pim_system1.cpu.exec_context.thread_0.numIntRegReads     13411077                       # Number of times the integer registers were read (Count)
pim_system1.cpu.exec_context.thread_0.numIntRegWrites      5588453                       # Number of times the integer registers were written (Count)
pim_system1.cpu.exec_context.thread_0.numFpRegReads            0                       # Number of times the floating registers were read (Count)
pim_system1.cpu.exec_context.thread_0.numFpRegWrites            0                       # Number of times the floating registers were written (Count)
pim_system1.cpu.exec_context.thread_0.numVecRegReads            0                       # Number of times the vector registers were read (Count)
pim_system1.cpu.exec_context.thread_0.numVecRegWrites            0                       # Number of times the vector registers were written (Count)
pim_system1.cpu.exec_context.thread_0.numVecPredRegReads            0                       # Number of times the predicate registers were read (Count)
pim_system1.cpu.exec_context.thread_0.numVecPredRegWrites            0                       # Number of times the predicate registers were written (Count)
pim_system1.cpu.exec_context.thread_0.numCCRegReads      6704999                       # Number of times the CC registers were read (Count)
pim_system1.cpu.exec_context.thread_0.numCCRegWrites      2236194                       # Number of times the CC registers were written (Count)
pim_system1.cpu.exec_context.thread_0.numMemRefs      1117596                       # Number of memory refs (Count)
pim_system1.cpu.exec_context.thread_0.numLoadInsts      1117075                       # Number of load instructions (Count)
pim_system1.cpu.exec_context.thread_0.numStoreInsts          521                       # Number of store instructions (Count)
pim_system1.cpu.exec_context.thread_0.numIdleCycles            0                       # Number of idle cycles (Cycle)
pim_system1.cpu.exec_context.thread_0.numBusyCycles      7824151                       # Number of busy cycles (Cycle)
pim_system1.cpu.exec_context.thread_0.notIdleFraction            1                       # Percentage of non-idle cycles (Ratio)
pim_system1.cpu.exec_context.thread_0.idleFraction            0                       # Percentage of idle cycles (Ratio)
pim_system1.cpu.exec_context.thread_0.numBranches      1117585                       # Number of branches fetched (Count)
pim_system1.cpu.exec_context.thread_0.statExecutedInstType::No_OpClass            0      0.00%      0.00% # Class of executed instruction. (Count)
pim_system1.cpu.exec_context.thread_0.statExecutedInstType::IntAlu      5588963     83.34%     83.34% # Class of executed instruction. (Count)
pim_system1.cpu.exec_context.thread_0.statExecutedInstType::IntMult            0      0.00%     83.34% # Class of executed instruction. (Count)
pim_system1.cpu.exec_context.thread_0.statExecutedInstType::IntDiv            0      0.00%     83.34% # Class of executed instruction. (Count)
pim_system1.cpu.exec_context.thread_0.statExecutedInstType::FloatAdd            0      0.00%     83.34% # Class of executed instruction. (Count)
pim_system1.cpu.exec_context.thread_0.statExecutedInstType::FloatCmp            0      0.00%     83.34% # Class of executed instruction. (Count)
pim_system1.cpu.exec_context.thread_0.statExecutedInstType::FloatCvt            0      0.00%     83.34% # Class of executed instruction. (Count)
pim_system1.cpu.exec_context.thread_0.statExecutedInstType::FloatMult            0      0.00%     83.34% # Class of executed instruction. (Count)
pim_system1.cpu.exec_context.thread_0.statExecutedInstType::FloatMultAcc            0      0.00%     83.34% # Class of executed instruction. (Count)
pim_system1.cpu.exec_context.thread_0.statExecutedInstType::FloatDiv            0      0.00%     83.34% # Class of executed instruction. (Count)
pim_system1.cpu.exec_context.thread_0.statExecutedInstType::FloatMisc            0      0.00%     83.34% # Class of executed instruction. (Count)
pim_system1.cpu.exec_context.thread_0.statExecutedInstType::FloatSqrt            0      0.00%     83.34% # Class of executed instruction. (Count)
pim_system1.cpu.exec_context.thread_0.statExecutedInstType::SimdAdd            0      0.00%     83.34% # Class of executed instruction. (Count)
pim_system1.cpu.exec_context.thread_0.statExecutedInstType::SimdAddAcc            0      0.00%     83.34% # Class of executed instruction. (Count)
pim_system1.cpu.exec_context.thread_0.statExecutedInstType::SimdAlu            0      0.00%     83.34% # Class of executed instruction. (Count)
pim_system1.cpu.exec_context.thread_0.statExecutedInstType::SimdCmp            0      0.00%     83.34% # Class of executed instruction. (Count)
pim_system1.cpu.exec_context.thread_0.statExecutedInstType::SimdCvt            0      0.00%     83.34% # Class of executed instruction. (Count)
pim_system1.cpu.exec_context.thread_0.statExecutedInstType::SimdMisc            0      0.00%     83.34% # Class of executed instruction. (Count)
pim_system1.cpu.exec_context.thread_0.statExecutedInstType::SimdMult            0      0.00%     83.34% # Class of executed instruction. (Count)
pim_system1.cpu.exec_context.thread_0.statExecutedInstType::SimdMultAcc            0      0.00%     83.34% # Class of executed instruction. (Count)
pim_system1.cpu.exec_context.thread_0.statExecutedInstType::SimdShift            0      0.00%     83.34% # Class of executed instruction. (Count)
pim_system1.cpu.exec_context.thread_0.statExecutedInstType::SimdShiftAcc            0      0.00%     83.34% # Class of executed instruction. (Count)
pim_system1.cpu.exec_context.thread_0.statExecutedInstType::SimdDiv            0      0.00%     83.34% # Class of executed instruction. (Count)
pim_system1.cpu.exec_context.thread_0.statExecutedInstType::SimdSqrt            0      0.00%     83.34% # Class of executed instruction. (Count)
pim_system1.cpu.exec_context.thread_0.statExecutedInstType::SimdFloatAdd            0      0.00%     83.34% # Class of executed instruction. (Count)
pim_system1.cpu.exec_context.thread_0.statExecutedInstType::SimdFloatAlu            0      0.00%     83.34% # Class of executed instruction. (Count)
pim_system1.cpu.exec_context.thread_0.statExecutedInstType::SimdFloatCmp            0      0.00%     83.34% # Class of executed instruction. (Count)
pim_system1.cpu.exec_context.thread_0.statExecutedInstType::SimdFloatCvt            0      0.00%     83.34% # Class of executed instruction. (Count)
pim_system1.cpu.exec_context.thread_0.statExecutedInstType::SimdFloatDiv            0      0.00%     83.34% # Class of executed instruction. (Count)
pim_system1.cpu.exec_context.thread_0.statExecutedInstType::SimdFloatMisc            0      0.00%     83.34% # Class of executed instruction. (Count)
pim_system1.cpu.exec_context.thread_0.statExecutedInstType::SimdFloatMult            0      0.00%     83.34% # Class of executed instruction. (Count)
pim_system1.cpu.exec_context.thread_0.statExecutedInstType::SimdFloatMultAcc            0      0.00%     83.34% # Class of executed instruction. (Count)
pim_system1.cpu.exec_context.thread_0.statExecutedInstType::SimdFloatSqrt            0      0.00%     83.34% # Class of executed instruction. (Count)
pim_system1.cpu.exec_context.thread_0.statExecutedInstType::SimdReduceAdd            0      0.00%     83.34% # Class of executed instruction. (Count)
pim_system1.cpu.exec_context.thread_0.statExecutedInstType::SimdReduceAlu            0      0.00%     83.34% # Class of executed instruction. (Count)
pim_system1.cpu.exec_context.thread_0.statExecutedInstType::SimdReduceCmp            0      0.00%     83.34% # Class of executed instruction. (Count)
pim_system1.cpu.exec_context.thread_0.statExecutedInstType::SimdFloatReduceAdd            0      0.00%     83.34% # Class of executed instruction. (Count)
pim_system1.cpu.exec_context.thread_0.statExecutedInstType::SimdFloatReduceCmp            0      0.00%     83.34% # Class of executed instruction. (Count)
pim_system1.cpu.exec_context.thread_0.statExecutedInstType::SimdAes            0      0.00%     83.34% # Class of executed instruction. (Count)
pim_system1.cpu.exec_context.thread_0.statExecutedInstType::SimdAesMix            0      0.00%     83.34% # Class of executed instruction. (Count)
pim_system1.cpu.exec_context.thread_0.statExecutedInstType::SimdSha1Hash            0      0.00%     83.34% # Class of executed instruction. (Count)
pim_system1.cpu.exec_context.thread_0.statExecutedInstType::SimdSha1Hash2            0      0.00%     83.34% # Class of executed instruction. (Count)
pim_system1.cpu.exec_context.thread_0.statExecutedInstType::SimdSha256Hash            0      0.00%     83.34% # Class of executed instruction. (Count)
pim_system1.cpu.exec_context.thread_0.statExecutedInstType::SimdSha256Hash2            0      0.00%     83.34% # Class of executed instruction. (Count)
pim_system1.cpu.exec_context.thread_0.statExecutedInstType::SimdShaSigma2            0      0.00%     83.34% # Class of executed instruction. (Count)
pim_system1.cpu.exec_context.thread_0.statExecutedInstType::SimdShaSigma3            0      0.00%     83.34% # Class of executed instruction. (Count)
pim_system1.cpu.exec_context.thread_0.statExecutedInstType::SimdPredAlu            0      0.00%     83.34% # Class of executed instruction. (Count)
pim_system1.cpu.exec_context.thread_0.statExecutedInstType::MemRead      1117075     16.66%     99.99% # Class of executed instruction. (Count)
pim_system1.cpu.exec_context.thread_0.statExecutedInstType::MemWrite          521      0.01%    100.00% # Class of executed instruction. (Count)
pim_system1.cpu.exec_context.thread_0.statExecutedInstType::FloatMemRead            0      0.00%    100.00% # Class of executed instruction. (Count)
pim_system1.cpu.exec_context.thread_0.statExecutedInstType::FloatMemWrite            0      0.00%    100.00% # Class of executed instruction. (Count)
pim_system1.cpu.exec_context.thread_0.statExecutedInstType::IprAccess            0      0.00%    100.00% # Class of executed instruction. (Count)
pim_system1.cpu.exec_context.thread_0.statExecutedInstType::InstPrefetch            0      0.00%    100.00% # Class of executed instruction. (Count)
pim_system1.cpu.exec_context.thread_0.statExecutedInstType::total      6706559                       # Class of executed instruction. (Count)
pim_system1.cpu.interrupts.clk_domain.clock        10672                       # Clock period in ticks (Tick)
pim_system1.cpu.mmu.dtb.rdAccesses            1117075                       # TLB accesses on read requests (Count)
pim_system1.cpu.mmu.dtb.wrAccesses                521                       # TLB accesses on write requests (Count)
pim_system1.cpu.mmu.dtb.rdMisses                    0                       # TLB misses on read requests (Count)
pim_system1.cpu.mmu.dtb.wrMisses                    2                       # TLB misses on write requests (Count)
pim_system1.cpu.mmu.dtb.walker.power_state.pwrStateResidencyTicks::UNDEFINED   5218708500                       # Cumulative time (in ticks) in various power states (Tick)
pim_system1.cpu.mmu.itb.rdAccesses                  0                       # TLB accesses on read requests (Count)
pim_system1.cpu.mmu.itb.wrAccesses            4470873                       # TLB accesses on write requests (Count)
pim_system1.cpu.mmu.itb.rdMisses                    0                       # TLB misses on read requests (Count)
pim_system1.cpu.mmu.itb.wrMisses                    1                       # TLB misses on write requests (Count)
pim_system1.cpu.mmu.itb.walker.power_state.pwrStateResidencyTicks::UNDEFINED   5218708500                       # Cumulative time (in ticks) in various power states (Tick)
pim_system1.cpu.power_state.pwrStateResidencyTicks::ON   5218708500                       # Cumulative time (in ticks) in various power states (Tick)
pim_system1.cpu.thread_0.numInsts                   0                       # Number of Instructions committed (Count)
pim_system1.cpu.thread_0.numOps                     0                       # Number of Ops committed (Count)
pim_system1.cpu.thread_0.numMemRefs                 0                       # Number of Memory References (Count)
pim_system1.cpu.workload.numSyscalls                0                       # Number of system calls (Count)
pim_system1.cpu_clk_domain.clock                  667                       # Clock period in ticks (Tick)
pim_system1.cpu_voltage_domain.voltage              1                       # Voltage in Volts (Volt)
pim_system1.pimbus.transDist::ReadReq         5587948                       # Transaction distribution (Count)
pim_system1.pimbus.transDist::ReadResp        5587948                       # Transaction distribution (Count)
pim_system1.pimbus.transDist::WriteReq            521                       # Transaction distribution (Count)
pim_system1.pimbus.transDist::WriteResp           521                       # Transaction distribution (Count)
pim_system1.pimbus.pktCount_pim_system1.cpu.icache_port::pim_system1.se_mem_ctrl.port      8941746                       # Packet count per connected requestor and responder (Count)
pim_system1.pimbus.pktCount_pim_system1.cpu.icache_port::total      8941746                       # Packet count per connected requestor and responder (Count)
pim_system1.pimbus.pktCount_pim_system1.cpu.dcache_port::pim_system1.spm.port      2235186                       # Packet count per connected requestor and responder (Count)
pim_system1.pimbus.pktCount_pim_system1.cpu.dcache_port::pim_system1.se_mem_ctrl.port            6                       # Packet count per connected requestor and responder (Count)
pim_system1.pimbus.pktCount_pim_system1.cpu.dcache_port::total      2235192                       # Packet count per connected requestor and responder (Count)
pim_system1.pimbus.pktCount::total           11176938                       # Packet count per connected requestor and responder (Count)
pim_system1.pimbus.pktSize_pim_system1.cpu.icache_port::pim_system1.se_mem_ctrl.port     35766984                       # Cumulative packet size per connected requestor and responder (Byte)
pim_system1.pimbus.pktSize_pim_system1.cpu.icache_port::total     35766984                       # Cumulative packet size per connected requestor and responder (Byte)
pim_system1.pimbus.pktSize_pim_system1.cpu.dcache_port::pim_system1.spm.port      1121170                       # Cumulative packet size per connected requestor and responder (Byte)
pim_system1.pimbus.pktSize_pim_system1.cpu.dcache_port::pim_system1.se_mem_ctrl.port           24                       # Cumulative packet size per connected requestor and responder (Byte)
pim_system1.pimbus.pktSize_pim_system1.cpu.dcache_port::total      1121194                       # Cumulative packet size per connected requestor and responder (Byte)
pim_system1.pimbus.pktSize::total            36888178                       # Cumulative packet size per connected requestor and responder (Byte)
pim_system1.pimbus.badaddr_responder.power_state.pwrStateResidencyTicks::UNDEFINED   5218708500                       # Cumulative time (in ticks) in various power states (Tick)
pim_system1.pimbus.power_state.pwrStateResidencyTicks::UNDEFINED   5218708500                       # Cumulative time (in ticks) in various power states (Tick)
pim_system1.se_mem_ctrl.bytesRead::pim_system1.cpu.inst     35766984                       # Number of bytes read from this memory (Byte)
pim_system1.se_mem_ctrl.bytesRead::total     35766984                       # Number of bytes read from this memory (Byte)
pim_system1.se_mem_ctrl.bytesInstRead::pim_system1.cpu.inst     35766984                       # Number of instructions bytes read from this memory (Byte)
pim_system1.se_mem_ctrl.bytesInstRead::total     35766984                       # Number of instructions bytes read from this memory (Byte)
pim_system1.se_mem_ctrl.bytesWritten::pim_system1.cpu.data           24                       # Number of bytes written to this memory (Byte)
pim_system1.se_mem_ctrl.bytesWritten::total           24                       # Number of bytes written to this memory (Byte)
pim_system1.se_mem_ctrl.numReads::pim_system1.cpu.inst      4470873                       # Number of read requests responded to by this memory (Count)
pim_system1.se_mem_ctrl.numReads::total       4470873                       # Number of read requests responded to by this memory (Count)
pim_system1.se_mem_ctrl.numWrites::pim_system1.cpu.data            3                       # Number of write requests responded to by this memory (Count)
pim_system1.se_mem_ctrl.numWrites::total            3                       # Number of write requests responded to by this memory (Count)
pim_system1.se_mem_ctrl.bwRead::pim_system1.cpu.inst   6853608321                       # Total read bandwidth from this memory ((Byte/Second))
pim_system1.se_mem_ctrl.bwRead::total      6853608321                       # Total read bandwidth from this memory ((Byte/Second))
pim_system1.se_mem_ctrl.bwInstRead::pim_system1.cpu.inst   6853608321                       # Instruction read bandwidth from this memory ((Byte/Second))
pim_system1.se_mem_ctrl.bwInstRead::total   6853608321                       # Instruction read bandwidth from this memory ((Byte/Second))
pim_system1.se_mem_ctrl.bwWrite::pim_system1.cpu.data         4599                       # Write bandwidth from this memory ((Byte/Second))
pim_system1.se_mem_ctrl.bwWrite::total           4599                       # Write bandwidth from this memory ((Byte/Second))
pim_system1.se_mem_ctrl.bwTotal::pim_system1.cpu.inst   6853608321                       # Total bandwidth to/from this memory ((Byte/Second))
pim_system1.se_mem_ctrl.bwTotal::pim_system1.cpu.data         4599                       # Total bandwidth to/from this memory ((Byte/Second))
pim_system1.se_mem_ctrl.bwTotal::total     6853612920                       # Total bandwidth to/from this memory ((Byte/Second))
pim_system1.se_mem_ctrl.power_state.pwrStateResidencyTicks::UNDEFINED   5218708500                       # Cumulative time (in ticks) in various power states (Tick)
pim_system1.spm.bytesRead::pim_system1.cpu.data      1117075                       # Number of bytes read from this memory (Byte)
pim_system1.spm.bytesRead::total              1117075                       # Number of bytes read from this memory (Byte)
pim_system1.spm.bytesWritten::pim_system1.cpu.data         4095                       # Number of bytes written to this memory (Byte)
pim_system1.spm.bytesWritten::total              4095                       # Number of bytes written to this memory (Byte)
pim_system1.spm.numReads::pim_system1.cpu.data      1117075                       # Number of read requests responded to by this memory (Count)
pim_system1.spm.numReads::total               1117075                       # Number of read requests responded to by this memory (Count)
pim_system1.spm.numWrites::pim_system1.cpu.data          518                       # Number of write requests responded to by this memory (Count)
pim_system1.spm.numWrites::total                  518                       # Number of write requests responded to by this memory (Count)
pim_system1.spm.bwRead::pim_system1.cpu.data    214052002                       # Total read bandwidth from this memory ((Byte/Second))
pim_system1.spm.bwRead::total               214052002                       # Total read bandwidth from this memory ((Byte/Second))
pim_system1.spm.bwWrite::pim_system1.cpu.data       784677                       # Write bandwidth from this memory ((Byte/Second))
pim_system1.spm.bwWrite::total                 784677                       # Write bandwidth from this memory ((Byte/Second))
pim_system1.spm.bwTotal::pim_system1.cpu.data    214836678                       # Total bandwidth to/from this memory ((Byte/Second))
pim_system1.spm.bwTotal::total              214836678                       # Total bandwidth to/from this memory ((Byte/Second))
pim_system1.spm.power_state.pwrStateResidencyTicks::UNDEFINED   5218708500                       # Cumulative time (in ticks) in various power states (Tick)
pim_system1.tohostbridge.power_state.pwrStateResidencyTicks::UNDEFINED   5218708500                       # Cumulative time (in ticks) in various power states (Tick)
pim_system1.voltage_domain.voltage                  1                       # Voltage in Volts (Volt)
pim_system1.workload.inst.arm                       0                       # number of arm instructions executed (Count)
pim_system1.workload.inst.quiesce                   0                       # number of quiesce instructions executed (Count)
pim_system2.clk_domain.clock                     1000                       # Clock period in ticks (Tick)
pim_system2.cpu.numCycles                     7824151                       # Number of cpu cycles simulated (Cycle)
pim_system2.cpu.numWorkItemsStarted                 0                       # Number of work items this cpu started (Count)
pim_system2.cpu.numWorkItemsCompleted               0                       # Number of work items this cpu completed (Count)
pim_system2.cpu.exec_context.thread_0.numInsts      3353281                       # Number of instructions committed (Count)
pim_system2.cpu.exec_context.thread_0.numOps      6706559                       # Number of ops (including micro ops) committed (Count)
pim_system2.cpu.exec_context.thread_0.numIntAluAccesses      6706559                       # Number of integer alu accesses (Count)
pim_system2.cpu.exec_context.thread_0.numFpAluAccesses            0                       # Number of float alu accesses (Count)
pim_system2.cpu.exec_context.thread_0.numVecAluAccesses            0                       # Number of vector alu accesses (Count)
pim_system2.cpu.exec_context.thread_0.numCallsReturns            0                       # Number of times a function call or return occured (Count)
pim_system2.cpu.exec_context.thread_0.numCondCtrlInsts      1117585                       # Number of instructions that are conditional controls (Count)
pim_system2.cpu.exec_context.thread_0.numIntInsts      6706559                       # Number of integer instructions (Count)
pim_system2.cpu.exec_context.thread_0.numFpInsts            0                       # Number of float instructions (Count)
pim_system2.cpu.exec_context.thread_0.numVecInsts            0                       # Number of vector instructions (Count)
pim_system2.cpu.exec_context.thread_0.numIntRegReads     13411077                       # Number of times the integer registers were read (Count)
pim_system2.cpu.exec_context.thread_0.numIntRegWrites      5588453                       # Number of times the integer registers were written (Count)
pim_system2.cpu.exec_context.thread_0.numFpRegReads            0                       # Number of times the floating registers were read (Count)
pim_system2.cpu.exec_context.thread_0.numFpRegWrites            0                       # Number of times the floating registers were written (Count)
pim_system2.cpu.exec_context.thread_0.numVecRegReads            0                       # Number of times the vector registers were read (Count)
pim_system2.cpu.exec_context.thread_0.numVecRegWrites            0                       # Number of times the vector registers were written (Count)
pim_system2.cpu.exec_context.thread_0.numVecPredRegReads            0                       # Number of times the predicate registers were read (Count)
pim_system2.cpu.exec_context.thread_0.numVecPredRegWrites            0                       # Number of times the predicate registers were written (Count)
pim_system2.cpu.exec_context.thread_0.numCCRegReads      6704999                       # Number of times the CC registers were read (Count)
pim_system2.cpu.exec_context.thread_0.numCCRegWrites      2236194                       # Number of times the CC registers were written (Count)
pim_system2.cpu.exec_context.thread_0.numMemRefs      1117596                       # Number of memory refs (Count)
pim_system2.cpu.exec_context.thread_0.numLoadInsts      1117075                       # Number of load instructions (Count)
pim_system2.cpu.exec_context.thread_0.numStoreInsts          521                       # Number of store instructions (Count)
pim_system2.cpu.exec_context.thread_0.numIdleCycles            0                       # Number of idle cycles (Cycle)
pim_system2.cpu.exec_context.thread_0.numBusyCycles      7824151                       # Number of busy cycles (Cycle)
pim_system2.cpu.exec_context.thread_0.notIdleFraction            1                       # Percentage of non-idle cycles (Ratio)
pim_system2.cpu.exec_context.thread_0.idleFraction            0                       # Percentage of idle cycles (Ratio)
pim_system2.cpu.exec_context.thread_0.numBranches      1117585                       # Number of branches fetched (Count)
pim_system2.cpu.exec_context.thread_0.statExecutedInstType::No_OpClass            0      0.00%      0.00% # Class of executed instruction. (Count)
pim_system2.cpu.exec_context.thread_0.statExecutedInstType::IntAlu      5588963     83.34%     83.34% # Class of executed instruction. (Count)
pim_system2.cpu.exec_context.thread_0.statExecutedInstType::IntMult            0      0.00%     83.34% # Class of executed instruction. (Count)
pim_system2.cpu.exec_context.thread_0.statExecutedInstType::IntDiv            0      0.00%     83.34% # Class of executed instruction. (Count)
pim_system2.cpu.exec_context.thread_0.statExecutedInstType::FloatAdd            0      0.00%     83.34% # Class of executed instruction. (Count)
pim_system2.cpu.exec_context.thread_0.statExecutedInstType::FloatCmp            0      0.00%     83.34% # Class of executed instruction. (Count)
pim_system2.cpu.exec_context.thread_0.statExecutedInstType::FloatCvt            0      0.00%     83.34% # Class of executed instruction. (Count)
pim_system2.cpu.exec_context.thread_0.statExecutedInstType::FloatMult            0      0.00%     83.34% # Class of executed instruction. (Count)
pim_system2.cpu.exec_context.thread_0.statExecutedInstType::FloatMultAcc            0      0.00%     83.34% # Class of executed instruction. (Count)
pim_system2.cpu.exec_context.thread_0.statExecutedInstType::FloatDiv            0      0.00%     83.34% # Class of executed instruction. (Count)
pim_system2.cpu.exec_context.thread_0.statExecutedInstType::FloatMisc            0      0.00%     83.34% # Class of executed instruction. (Count)
pim_system2.cpu.exec_context.thread_0.statExecutedInstType::FloatSqrt            0      0.00%     83.34% # Class of executed instruction. (Count)
pim_system2.cpu.exec_context.thread_0.statExecutedInstType::SimdAdd            0      0.00%     83.34% # Class of executed instruction. (Count)
pim_system2.cpu.exec_context.thread_0.statExecutedInstType::SimdAddAcc            0      0.00%     83.34% # Class of executed instruction. (Count)
pim_system2.cpu.exec_context.thread_0.statExecutedInstType::SimdAlu            0      0.00%     83.34% # Class of executed instruction. (Count)
pim_system2.cpu.exec_context.thread_0.statExecutedInstType::SimdCmp            0      0.00%     83.34% # Class of executed instruction. (Count)
pim_system2.cpu.exec_context.thread_0.statExecutedInstType::SimdCvt            0      0.00%     83.34% # Class of executed instruction. (Count)
pim_system2.cpu.exec_context.thread_0.statExecutedInstType::SimdMisc            0      0.00%     83.34% # Class of executed instruction. (Count)
pim_system2.cpu.exec_context.thread_0.statExecutedInstType::SimdMult            0      0.00%     83.34% # Class of executed instruction. (Count)
pim_system2.cpu.exec_context.thread_0.statExecutedInstType::SimdMultAcc            0      0.00%     83.34% # Class of executed instruction. (Count)
pim_system2.cpu.exec_context.thread_0.statExecutedInstType::SimdShift            0      0.00%     83.34% # Class of executed instruction. (Count)
pim_system2.cpu.exec_context.thread_0.statExecutedInstType::SimdShiftAcc            0      0.00%     83.34% # Class of executed instruction. (Count)
pim_system2.cpu.exec_context.thread_0.statExecutedInstType::SimdDiv            0      0.00%     83.34% # Class of executed instruction. (Count)
pim_system2.cpu.exec_context.thread_0.statExecutedInstType::SimdSqrt            0      0.00%     83.34% # Class of executed instruction. (Count)
pim_system2.cpu.exec_context.thread_0.statExecutedInstType::SimdFloatAdd            0      0.00%     83.34% # Class of executed instruction. (Count)
pim_system2.cpu.exec_context.thread_0.statExecutedInstType::SimdFloatAlu            0      0.00%     83.34% # Class of executed instruction. (Count)
pim_system2.cpu.exec_context.thread_0.statExecutedInstType::SimdFloatCmp            0      0.00%     83.34% # Class of executed instruction. (Count)
pim_system2.cpu.exec_context.thread_0.statExecutedInstType::SimdFloatCvt            0      0.00%     83.34% # Class of executed instruction. (Count)
pim_system2.cpu.exec_context.thread_0.statExecutedInstType::SimdFloatDiv            0      0.00%     83.34% # Class of executed instruction. (Count)
pim_system2.cpu.exec_context.thread_0.statExecutedInstType::SimdFloatMisc            0      0.00%     83.34% # Class of executed instruction. (Count)
pim_system2.cpu.exec_context.thread_0.statExecutedInstType::SimdFloatMult            0      0.00%     83.34% # Class of executed instruction. (Count)
pim_system2.cpu.exec_context.thread_0.statExecutedInstType::SimdFloatMultAcc            0      0.00%     83.34% # Class of executed instruction. (Count)
pim_system2.cpu.exec_context.thread_0.statExecutedInstType::SimdFloatSqrt            0      0.00%     83.34% # Class of executed instruction. (Count)
pim_system2.cpu.exec_context.thread_0.statExecutedInstType::SimdReduceAdd            0      0.00%     83.34% # Class of executed instruction. (Count)
pim_system2.cpu.exec_context.thread_0.statExecutedInstType::SimdReduceAlu            0      0.00%     83.34% # Class of executed instruction. (Count)
pim_system2.cpu.exec_context.thread_0.statExecutedInstType::SimdReduceCmp            0      0.00%     83.34% # Class of executed instruction. (Count)
pim_system2.cpu.exec_context.thread_0.statExecutedInstType::SimdFloatReduceAdd            0      0.00%     83.34% # Class of executed instruction. (Count)
pim_system2.cpu.exec_context.thread_0.statExecutedInstType::SimdFloatReduceCmp            0      0.00%     83.34% # Class of executed instruction. (Count)
pim_system2.cpu.exec_context.thread_0.statExecutedInstType::SimdAes            0      0.00%     83.34% # Class of executed instruction. (Count)
pim_system2.cpu.exec_context.thread_0.statExecutedInstType::SimdAesMix            0      0.00%     83.34% # Class of executed instruction. (Count)
pim_system2.cpu.exec_context.thread_0.statExecutedInstType::SimdSha1Hash            0      0.00%     83.34% # Class of executed instruction. (Count)
pim_system2.cpu.exec_context.thread_0.statExecutedInstType::SimdSha1Hash2            0      0.00%     83.34% # Class of executed instruction. (Count)
pim_system2.cpu.exec_context.thread_0.statExecutedInstType::SimdSha256Hash            0      0.00%     83.34% # Class of executed instruction. (Count)
pim_system2.cpu.exec_context.thread_0.statExecutedInstType::SimdSha256Hash2            0      0.00%     83.34% # Class of executed instruction. (Count)
pim_system2.cpu.exec_context.thread_0.statExecutedInstType::SimdShaSigma2            0      0.00%     83.34% # Class of executed instruction. (Count)
pim_system2.cpu.exec_context.thread_0.statExecutedInstType::SimdShaSigma3            0      0.00%     83.34% # Class of executed instruction. (Count)
pim_system2.cpu.exec_context.thread_0.statExecutedInstType::SimdPredAlu            0      0.00%     83.34% # Class of executed instruction. (Count)
pim_system2.cpu.exec_context.thread_0.statExecutedInstType::MemRead      1117075     16.66%     99.99% # Class of executed instruction. (Count)
pim_system2.cpu.exec_context.thread_0.statExecutedInstType::MemWrite          521      0.01%    100.00% # Class of executed instruction. (Count)
pim_system2.cpu.exec_context.thread_0.statExecutedInstType::FloatMemRead            0      0.00%    100.00% # Class of executed instruction. (Count)
pim_system2.cpu.exec_context.thread_0.statExecutedInstType::FloatMemWrite            0      0.00%    100.00% # Class of executed instruction. (Count)
pim_system2.cpu.exec_context.thread_0.statExecutedInstType::IprAccess            0      0.00%    100.00% # Class of executed instruction. (Count)
pim_system2.cpu.exec_context.thread_0.statExecutedInstType::InstPrefetch            0      0.00%    100.00% # Class of executed instruction. (Count)
pim_system2.cpu.exec_context.thread_0.statExecutedInstType::total      6706559                       # Class of executed instruction. (Count)
pim_system2.cpu.interrupts.clk_domain.clock        10672                       # Clock period in ticks (Tick)
pim_system2.cpu.mmu.dtb.rdAccesses            1117075                       # TLB accesses on read requests (Count)
pim_system2.cpu.mmu.dtb.wrAccesses                521                       # TLB accesses on write requests (Count)
pim_system2.cpu.mmu.dtb.rdMisses                    0                       # TLB misses on read requests (Count)
pim_system2.cpu.mmu.dtb.wrMisses                    2                       # TLB misses on write requests (Count)
pim_system2.cpu.mmu.dtb.walker.power_state.pwrStateResidencyTicks::UNDEFINED   5218708500                       # Cumulative time (in ticks) in various power states (Tick)
pim_system2.cpu.mmu.itb.rdAccesses                  0                       # TLB accesses on read requests (Count)
pim_system2.cpu.mmu.itb.wrAccesses            4470873                       # TLB accesses on write requests (Count)
pim_system2.cpu.mmu.itb.rdMisses                    0                       # TLB misses on read requests (Count)
pim_system2.cpu.mmu.itb.wrMisses                    1                       # TLB misses on write requests (Count)
pim_system2.cpu.mmu.itb.walker.power_state.pwrStateResidencyTicks::UNDEFINED   5218708500                       # Cumulative time (in ticks) in various power states (Tick)
pim_system2.cpu.power_state.pwrStateResidencyTicks::ON   5218708500                       # Cumulative time (in ticks) in various power states (Tick)
pim_system2.cpu.thread_0.numInsts                   0                       # Number of Instructions committed (Count)
pim_system2.cpu.thread_0.numOps                     0                       # Number of Ops committed (Count)
pim_system2.cpu.thread_0.numMemRefs                 0                       # Number of Memory References (Count)
pim_system2.cpu.workload.numSyscalls                0                       # Number of system calls (Count)
pim_system2.cpu_clk_domain.clock                  667                       # Clock period in ticks (Tick)
pim_system2.cpu_voltage_domain.voltage              1                       # Voltage in Volts (Volt)
pim_system2.pimbus.transDist::ReadReq         5587948                       # Transaction distribution (Count)
pim_system2.pimbus.transDist::ReadResp        5587948                       # Transaction distribution (Count)
pim_system2.pimbus.transDist::WriteReq            521                       # Transaction distribution (Count)
pim_system2.pimbus.transDist::WriteResp           521                       # Transaction distribution (Count)
pim_system2.pimbus.pktCount_pim_system2.cpu.icache_port::pim_system2.se_mem_ctrl.port      8941746                       # Packet count per connected requestor and responder (Count)
pim_system2.pimbus.pktCount_pim_system2.cpu.icache_port::total      8941746                       # Packet count per connected requestor and responder (Count)
pim_system2.pimbus.pktCount_pim_system2.cpu.dcache_port::pim_system2.spm.port      2235186                       # Packet count per connected requestor and responder (Count)
pim_system2.pimbus.pktCount_pim_system2.cpu.dcache_port::pim_system2.se_mem_ctrl.port            6                       # Packet count per connected requestor and responder (Count)
pim_system2.pimbus.pktCount_pim_system2.cpu.dcache_port::total      2235192                       # Packet count per connected requestor and responder (Count)
pim_system2.pimbus.pktCount::total           11176938                       # Packet count per connected requestor and responder (Count)
pim_system2.pimbus.pktSize_pim_system2.cpu.icache_port::pim_system2.se_mem_ctrl.port     35766984                       # Cumulative packet size per connected requestor and responder (Byte)
pim_system2.pimbus.pktSize_pim_system2.cpu.icache_port::total     35766984                       # Cumulative packet size per connected requestor and responder (Byte)
pim_system2.pimbus.pktSize_pim_system2.cpu.dcache_port::pim_system2.spm.port      1121170                       # Cumulative packet size per connected requestor and responder (Byte)
pim_system2.pimbus.pktSize_pim_system2.cpu.dcache_port::pim_system2.se_mem_ctrl.port           24                       # Cumulative packet size per connected requestor and responder (Byte)
pim_system2.pimbus.pktSize_pim_system2.cpu.dcache_port::total      1121194                       # Cumulative packet size per connected requestor and responder (Byte)
pim_system2.pimbus.pktSize::total            36888178                       # Cumulative packet size per connected requestor and responder (Byte)
pim_system2.pimbus.badaddr_responder.power_state.pwrStateResidencyTicks::UNDEFINED   5218708500                       # Cumulative time (in ticks) in various power states (Tick)
pim_system2.pimbus.power_state.pwrStateResidencyTicks::UNDEFINED   5218708500                       # Cumulative time (in ticks) in various power states (Tick)
pim_system2.se_mem_ctrl.bytesRead::pim_system2.cpu.inst     35766984                       # Number of bytes read from this memory (Byte)
pim_system2.se_mem_ctrl.bytesRead::total     35766984                       # Number of bytes read from this memory (Byte)
pim_system2.se_mem_ctrl.bytesInstRead::pim_system2.cpu.inst     35766984                       # Number of instructions bytes read from this memory (Byte)
pim_system2.se_mem_ctrl.bytesInstRead::total     35766984                       # Number of instructions bytes read from this memory (Byte)
pim_system2.se_mem_ctrl.bytesWritten::pim_system2.cpu.data           24                       # Number of bytes written to this memory (Byte)
pim_system2.se_mem_ctrl.bytesWritten::total           24                       # Number of bytes written to this memory (Byte)
pim_system2.se_mem_ctrl.numReads::pim_system2.cpu.inst      4470873                       # Number of read requests responded to by this memory (Count)
pim_system2.se_mem_ctrl.numReads::total       4470873                       # Number of read requests responded to by this memory (Count)
pim_system2.se_mem_ctrl.numWrites::pim_system2.cpu.data            3                       # Number of write requests responded to by this memory (Count)
pim_system2.se_mem_ctrl.numWrites::total            3                       # Number of write requests responded to by this memory (Count)
pim_system2.se_mem_ctrl.bwRead::pim_system2.cpu.inst   6853608321                       # Total read bandwidth from this memory ((Byte/Second))
pim_system2.se_mem_ctrl.bwRead::total      6853608321                       # Total read bandwidth from this memory ((Byte/Second))
pim_system2.se_mem_ctrl.bwInstRead::pim_system2.cpu.inst   6853608321                       # Instruction read bandwidth from this memory ((Byte/Second))
pim_system2.se_mem_ctrl.bwInstRead::total   6853608321                       # Instruction read bandwidth from this memory ((Byte/Second))
pim_system2.se_mem_ctrl.bwWrite::pim_system2.cpu.data         4599                       # Write bandwidth from this memory ((Byte/Second))
pim_system2.se_mem_ctrl.bwWrite::total           4599                       # Write bandwidth from this memory ((Byte/Second))
pim_system2.se_mem_ctrl.bwTotal::pim_system2.cpu.inst   6853608321                       # Total bandwidth to/from this memory ((Byte/Second))
pim_system2.se_mem_ctrl.bwTotal::pim_system2.cpu.data         4599                       # Total bandwidth to/from this memory ((Byte/Second))
pim_system2.se_mem_ctrl.bwTotal::total     6853612920                       # Total bandwidth to/from this memory ((Byte/Second))
pim_system2.se_mem_ctrl.power_state.pwrStateResidencyTicks::UNDEFINED   5218708500                       # Cumulative time (in ticks) in various power states (Tick)
pim_system2.spm.bytesRead::pim_system2.cpu.data      1117075                       # Number of bytes read from this memory (Byte)
pim_system2.spm.bytesRead::total              1117075                       # Number of bytes read from this memory (Byte)
pim_system2.spm.bytesWritten::pim_system2.cpu.data         4095                       # Number of bytes written to this memory (Byte)
pim_system2.spm.bytesWritten::total              4095                       # Number of bytes written to this memory (Byte)
pim_system2.spm.numReads::pim_system2.cpu.data      1117075                       # Number of read requests responded to by this memory (Count)
pim_system2.spm.numReads::total               1117075                       # Number of read requests responded to by this memory (Count)
pim_system2.spm.numWrites::pim_system2.cpu.data          518                       # Number of write requests responded to by this memory (Count)
pim_system2.spm.numWrites::total                  518                       # Number of write requests responded to by this memory (Count)
pim_system2.spm.bwRead::pim_system2.cpu.data    214052002                       # Total read bandwidth from this memory ((Byte/Second))
pim_system2.spm.bwRead::total               214052002                       # Total read bandwidth from this memory ((Byte/Second))
pim_system2.spm.bwWrite::pim_system2.cpu.data       784677                       # Write bandwidth from this memory ((Byte/Second))
pim_system2.spm.bwWrite::total                 784677                       # Write bandwidth from this memory ((Byte/Second))
pim_system2.spm.bwTotal::pim_system2.cpu.data    214836678                       # Total bandwidth to/from this memory ((Byte/Second))
pim_system2.spm.bwTotal::total              214836678                       # Total bandwidth to/from this memory ((Byte/Second))
pim_system2.spm.power_state.pwrStateResidencyTicks::UNDEFINED   5218708500                       # Cumulative time (in ticks) in various power states (Tick)
pim_system2.tohostbridge.power_state.pwrStateResidencyTicks::UNDEFINED   5218708500                       # Cumulative time (in ticks) in various power states (Tick)
pim_system2.voltage_domain.voltage                  1                       # Voltage in Volts (Volt)
pim_system2.workload.inst.arm                       0                       # number of arm instructions executed (Count)
pim_system2.workload.inst.quiesce                   0                       # number of quiesce instructions executed (Count)
pim_system3.clk_domain.clock                     1000                       # Clock period in ticks (Tick)
pim_system3.cpu.numCycles                     7824151                       # Number of cpu cycles simulated (Cycle)
pim_system3.cpu.numWorkItemsStarted                 0                       # Number of work items this cpu started (Count)
pim_system3.cpu.numWorkItemsCompleted               0                       # Number of work items this cpu completed (Count)
pim_system3.cpu.exec_context.thread_0.numInsts      3353281                       # Number of instructions committed (Count)
pim_system3.cpu.exec_context.thread_0.numOps      6706559                       # Number of ops (including micro ops) committed (Count)
pim_system3.cpu.exec_context.thread_0.numIntAluAccesses      6706559                       # Number of integer alu accesses (Count)
pim_system3.cpu.exec_context.thread_0.numFpAluAccesses            0                       # Number of float alu accesses (Count)
pim_system3.cpu.exec_context.thread_0.numVecAluAccesses            0                       # Number of vector alu accesses (Count)
pim_system3.cpu.exec_context.thread_0.numCallsReturns            0                       # Number of times a function call or return occured (Count)
pim_system3.cpu.exec_context.thread_0.numCondCtrlInsts      1117585                       # Number of instructions that are conditional controls (Count)
pim_system3.cpu.exec_context.thread_0.numIntInsts      6706559                       # Number of integer instructions (Count)
pim_system3.cpu.exec_context.thread_0.numFpInsts            0                       # Number of float instructions (Count)
pim_system3.cpu.exec_context.thread_0.numVecInsts            0                       # Number of vector instructions (Count)
pim_system3.cpu.exec_context.thread_0.numIntRegReads     13411077                       # Number of times the integer registers were read (Count)
pim_system3.cpu.exec_context.thread_0.numIntRegWrites      5588453                       # Number of times the integer registers were written (Count)
pim_system3.cpu.exec_context.thread_0.numFpRegReads            0                       # Number of times the floating registers were read (Count)
pim_system3.cpu.exec_context.thread_0.numFpRegWrites            0                       # Number of times the floating registers were written (Count)
pim_system3.cpu.exec_context.thread_0.numVecRegReads            0                       # Number of times the vector registers were read (Count)
pim_system3.cpu.exec_context.thread_0.numVecRegWrites            0                       # Number of times the vector registers were written (Count)
pim_system3.cpu.exec_context.thread_0.numVecPredRegReads            0                       # Number of times the predicate registers were read (Count)
pim_system3.cpu.exec_context.thread_0.numVecPredRegWrites            0                       # Number of times the predicate registers were written (Count)
pim_system3.cpu.exec_context.thread_0.numCCRegReads      6704999                       # Number of times the CC registers were read (Count)
pim_system3.cpu.exec_context.thread_0.numCCRegWrites      2236194                       # Number of times the CC registers were written (Count)
pim_system3.cpu.exec_context.thread_0.numMemRefs      1117596                       # Number of memory refs (Count)
pim_system3.cpu.exec_context.thread_0.numLoadInsts      1117075                       # Number of load instructions (Count)
pim_system3.cpu.exec_context.thread_0.numStoreInsts          521                       # Number of store instructions (Count)
pim_system3.cpu.exec_context.thread_0.numIdleCycles            0                       # Number of idle cycles (Cycle)
pim_system3.cpu.exec_context.thread_0.numBusyCycles      7824151                       # Number of busy cycles (Cycle)
pim_system3.cpu.exec_context.thread_0.notIdleFraction            1                       # Percentage of non-idle cycles (Ratio)
pim_system3.cpu.exec_context.thread_0.idleFraction            0                       # Percentage of idle cycles (Ratio)
pim_system3.cpu.exec_context.thread_0.numBranches      1117585                       # Number of branches fetched (Count)
pim_system3.cpu.exec_context.thread_0.statExecutedInstType::No_OpClass            0      0.00%      0.00% # Class of executed instruction. (Count)
pim_system3.cpu.exec_context.thread_0.statExecutedInstType::IntAlu      5588963     83.34%     83.34% # Class of executed instruction. (Count)
pim_system3.cpu.exec_context.thread_0.statExecutedInstType::IntMult            0      0.00%     83.34% # Class of executed instruction. (Count)
pim_system3.cpu.exec_context.thread_0.statExecutedInstType::IntDiv            0      0.00%     83.34% # Class of executed instruction. (Count)
pim_system3.cpu.exec_context.thread_0.statExecutedInstType::FloatAdd            0      0.00%     83.34% # Class of executed instruction. (Count)
pim_system3.cpu.exec_context.thread_0.statExecutedInstType::FloatCmp            0      0.00%     83.34% # Class of executed instruction. (Count)
pim_system3.cpu.exec_context.thread_0.statExecutedInstType::FloatCvt            0      0.00%     83.34% # Class of executed instruction. (Count)
pim_system3.cpu.exec_context.thread_0.statExecutedInstType::FloatMult            0      0.00%     83.34% # Class of executed instruction. (Count)
pim_system3.cpu.exec_context.thread_0.statExecutedInstType::FloatMultAcc            0      0.00%     83.34% # Class of executed instruction. (Count)
pim_system3.cpu.exec_context.thread_0.statExecutedInstType::FloatDiv            0      0.00%     83.34% # Class of executed instruction. (Count)
pim_system3.cpu.exec_context.thread_0.statExecutedInstType::FloatMisc            0      0.00%     83.34% # Class of executed instruction. (Count)
pim_system3.cpu.exec_context.thread_0.statExecutedInstType::FloatSqrt            0      0.00%     83.34% # Class of executed instruction. (Count)
pim_system3.cpu.exec_context.thread_0.statExecutedInstType::SimdAdd            0      0.00%     83.34% # Class of executed instruction. (Count)
pim_system3.cpu.exec_context.thread_0.statExecutedInstType::SimdAddAcc            0      0.00%     83.34% # Class of executed instruction. (Count)
pim_system3.cpu.exec_context.thread_0.statExecutedInstType::SimdAlu            0      0.00%     83.34% # Class of executed instruction. (Count)
pim_system3.cpu.exec_context.thread_0.statExecutedInstType::SimdCmp            0      0.00%     83.34% # Class of executed instruction. (Count)
pim_system3.cpu.exec_context.thread_0.statExecutedInstType::SimdCvt            0      0.00%     83.34% # Class of executed instruction. (Count)
pim_system3.cpu.exec_context.thread_0.statExecutedInstType::SimdMisc            0      0.00%     83.34% # Class of executed instruction. (Count)
pim_system3.cpu.exec_context.thread_0.statExecutedInstType::SimdMult            0      0.00%     83.34% # Class of executed instruction. (Count)
pim_system3.cpu.exec_context.thread_0.statExecutedInstType::SimdMultAcc            0      0.00%     83.34% # Class of executed instruction. (Count)
pim_system3.cpu.exec_context.thread_0.statExecutedInstType::SimdShift            0      0.00%     83.34% # Class of executed instruction. (Count)
pim_system3.cpu.exec_context.thread_0.statExecutedInstType::SimdShiftAcc            0      0.00%     83.34% # Class of executed instruction. (Count)
pim_system3.cpu.exec_context.thread_0.statExecutedInstType::SimdDiv            0      0.00%     83.34% # Class of executed instruction. (Count)
pim_system3.cpu.exec_context.thread_0.statExecutedInstType::SimdSqrt            0      0.00%     83.34% # Class of executed instruction. (Count)
pim_system3.cpu.exec_context.thread_0.statExecutedInstType::SimdFloatAdd            0      0.00%     83.34% # Class of executed instruction. (Count)
pim_system3.cpu.exec_context.thread_0.statExecutedInstType::SimdFloatAlu            0      0.00%     83.34% # Class of executed instruction. (Count)
pim_system3.cpu.exec_context.thread_0.statExecutedInstType::SimdFloatCmp            0      0.00%     83.34% # Class of executed instruction. (Count)
pim_system3.cpu.exec_context.thread_0.statExecutedInstType::SimdFloatCvt            0      0.00%     83.34% # Class of executed instruction. (Count)
pim_system3.cpu.exec_context.thread_0.statExecutedInstType::SimdFloatDiv            0      0.00%     83.34% # Class of executed instruction. (Count)
pim_system3.cpu.exec_context.thread_0.statExecutedInstType::SimdFloatMisc            0      0.00%     83.34% # Class of executed instruction. (Count)
pim_system3.cpu.exec_context.thread_0.statExecutedInstType::SimdFloatMult            0      0.00%     83.34% # Class of executed instruction. (Count)
pim_system3.cpu.exec_context.thread_0.statExecutedInstType::SimdFloatMultAcc            0      0.00%     83.34% # Class of executed instruction. (Count)
pim_system3.cpu.exec_context.thread_0.statExecutedInstType::SimdFloatSqrt            0      0.00%     83.34% # Class of executed instruction. (Count)
pim_system3.cpu.exec_context.thread_0.statExecutedInstType::SimdReduceAdd            0      0.00%     83.34% # Class of executed instruction. (Count)
pim_system3.cpu.exec_context.thread_0.statExecutedInstType::SimdReduceAlu            0      0.00%     83.34% # Class of executed instruction. (Count)
pim_system3.cpu.exec_context.thread_0.statExecutedInstType::SimdReduceCmp            0      0.00%     83.34% # Class of executed instruction. (Count)
pim_system3.cpu.exec_context.thread_0.statExecutedInstType::SimdFloatReduceAdd            0      0.00%     83.34% # Class of executed instruction. (Count)
pim_system3.cpu.exec_context.thread_0.statExecutedInstType::SimdFloatReduceCmp            0      0.00%     83.34% # Class of executed instruction. (Count)
pim_system3.cpu.exec_context.thread_0.statExecutedInstType::SimdAes            0      0.00%     83.34% # Class of executed instruction. (Count)
pim_system3.cpu.exec_context.thread_0.statExecutedInstType::SimdAesMix            0      0.00%     83.34% # Class of executed instruction. (Count)
pim_system3.cpu.exec_context.thread_0.statExecutedInstType::SimdSha1Hash            0      0.00%     83.34% # Class of executed instruction. (Count)
pim_system3.cpu.exec_context.thread_0.statExecutedInstType::SimdSha1Hash2            0      0.00%     83.34% # Class of executed instruction. (Count)
pim_system3.cpu.exec_context.thread_0.statExecutedInstType::SimdSha256Hash            0      0.00%     83.34% # Class of executed instruction. (Count)
[...]
system.memsubsystem4.mem_ctrls.dram.totBusLat            0                       # Total ticks spent in databus transfers (Tick)
system.memsubsystem4.mem_ctrls.dram.totMemAccLat            0                       # Total ticks spent from burst creation until serviced by the DRAM (Tick)
system.memsubsystem4.mem_ctrls.dram.avgQLat          nan                       # Average queueing delay per DRAM burst ((Tick/Count))
system.memsubsystem4.mem_ctrls.dram.avgBusLat          nan                       # Average bus latency per DRAM burst ((Tick/Count))
system.memsubsystem4.mem_ctrls.dram.avgMemAccLat          nan                       # Average memory access latency per DRAM burst ((Tick/Count))
system.memsubsystem4.mem_ctrls.dram.readRowHits            0                       # Number of row buffer hits during reads (Count)
system.memsubsystem4.mem_ctrls.dram.writeRowHits            0                       # Number of row buffer hits during writes (Count)
system.memsubsystem4.mem_ctrls.dram.readRowHitRate          nan                       # Row buffer hit rate for reads (Ratio)
system.memsubsystem4.mem_ctrls.dram.writeRowHitRate          nan                       # Row buffer hit rate for writes (Ratio)
system.memsubsystem4.mem_ctrls.dram.bytesRead            0                       # Total number of bytes read from DRAM (Byte)
system.memsubsystem4.mem_ctrls.dram.bytesWritten            0                       # Total number of bytes written to DRAM (Byte)
system.memsubsystem4.mem_ctrls.dram.avgRdBW            0                       # Average DRAM read bandwidth in MiBytes/s ((Byte/Second))
system.memsubsystem4.mem_ctrls.dram.avgWrBW            0                       # Average DRAM write bandwidth in MiBytes/s ((Byte/Second))
system.memsubsystem4.mem_ctrls.dram.peakBW    153846.00                       # Theoretical peak bandwidth in MiByte/s ((Byte/Second))
system.memsubsystem4.mem_ctrls.dram.busUtil         0.00                       # Data bus utilization in percentage (Ratio)
system.memsubsystem4.mem_ctrls.dram.busUtilRead         0.00                       # Data bus utilization in percentage for reads (Ratio)
system.memsubsystem4.mem_ctrls.dram.busUtilWrite         0.00                       # Data bus utilization in percentage for writes (Ratio)
system.memsubsystem4.mem_ctrls.dram.pageHitRate          nan                       # Row buffer hit rate, read and write combined (Ratio)
system.memsubsystem4.mem_ctrls.dram.power_state.pwrStateResidencyTicks::UNDEFINED   5218708500                       # Cumulative time (in ticks) in various power states (Tick)
system.memsubsystem4.mem_ctrls.dram.rank0.actEnergy            0                       # Energy for activate commands per rank (pJ) (Joule)
system.memsubsystem4.mem_ctrls.dram.rank0.preEnergy            0                       # Energy for precharge commands per rank (pJ) (Joule)
system.memsubsystem4.mem_ctrls.dram.rank0.readEnergy            0                       # Energy for read commands per rank (pJ) (Joule)
system.memsubsystem4.mem_ctrls.dram.rank0.writeEnergy            0                       # Energy for write commands per rank (pJ) (Joule)
system.memsubsystem4.mem_ctrls.dram.rank0.refreshEnergy            0                       # Energy for refresh commands per rank (pJ) (Joule)
system.memsubsystem4.mem_ctrls.dram.rank0.actBackEnergy            0                       # Energy for active background per rank (pJ) (Joule)
system.memsubsystem4.mem_ctrls.dram.rank0.preBackEnergy 13643470507.967999                       # Energy for precharge background per rank (pJ) (Joule)
system.memsubsystem4.mem_ctrls.dram.rank0.actPowerDownEnergy            0                       # Energy for active power-down per rank (pJ) (Joule)
system.memsubsystem4.mem_ctrls.dram.rank0.prePowerDownEnergy            0                       # Energy for precharge power-down per rank (pJ) (Joule)
system.memsubsystem4.mem_ctrls.dram.rank0.selfRefreshEnergy            0                       # Energy for self refresh per rank (pJ) (Joule)
system.memsubsystem4.mem_ctrls.dram.rank0.totalEnergy 13643470507.967999                       # Total energy per rank (pJ) (Joule)
system.memsubsystem4.mem_ctrls.dram.rank0.averagePower  2614.338492                       # Core power per rank (mW) (Watt)
system.memsubsystem4.mem_ctrls.dram.rank0.totalIdleTime            0                       # Total Idle time Per DRAM Rank (Tick)
system.memsubsystem4.mem_ctrls.dram.rank0.pwrStateTime::IDLE   5218708500                       # Time in different power states (Tick)
system.memsubsystem4.mem_ctrls.dram.rank0.pwrStateTime::REF            0                       # Time in different power states (Tick)
system.memsubsystem4.mem_ctrls.dram.rank0.pwrStateTime::SREF            0                       # Time in different power states (Tick)
system.memsubsystem4.mem_ctrls.dram.rank0.pwrStateTime::PRE_PDN            0                       # Time in different power states (Tick)
system.memsubsystem4.mem_ctrls.dram.rank0.pwrStateTime::ACT            0                       # Time in different power states (Tick)
system.memsubsystem4.mem_ctrls.dram.rank0.pwrStateTime::ACT_PDN            0                       # Time in different power states (Tick)
system.memsubsystem4.mem_ctrls.dram.rank1.actEnergy            0                       # Energy for activate commands per rank (pJ) (Joule)
system.memsubsystem4.mem_ctrls.dram.rank1.preEnergy            0                       # Energy for precharge commands per rank (pJ) (Joule)
system.memsubsystem4.mem_ctrls.dram.rank1.readEnergy            0                       # Energy for read commands per rank (pJ) (Joule)
system.memsubsystem4.mem_ctrls.dram.rank1.writeEnergy            0                       # Energy for write commands per rank (pJ) (Joule)
system.memsubsystem4.mem_ctrls.dram.rank1.refreshEnergy            0                       # Energy for refresh commands per rank (pJ) (Joule)
system.memsubsystem4.mem_ctrls.dram.rank1.actBackEnergy            0                       # Energy for active background per rank (pJ) (Joule)
system.memsubsystem4.mem_ctrls.dram.rank1.preBackEnergy 13643470507.967999                       # Energy for precharge background per rank (pJ) (Joule)
system.memsubsystem4.mem_ctrls.dram.rank1.actPowerDownEnergy            0                       # Energy for active power-down per rank (pJ) (Joule)
system.memsubsystem4.mem_ctrls.dram.rank1.prePowerDownEnergy            0                       # Energy for precharge power-down per rank (pJ) (Joule)
system.memsubsystem4.mem_ctrls.dram.rank1.selfRefreshEnergy            0                       # Energy for self refresh per rank (pJ) (Joule)
system.memsubsystem4.mem_ctrls.dram.rank1.totalEnergy 13643470507.967999                       # Total energy per rank (pJ) (Joule)
system.memsubsystem4.mem_ctrls.dram.rank1.averagePower  2614.338492                       # Core power per rank (mW) (Watt)
system.memsubsystem4.mem_ctrls.dram.rank1.totalIdleTime            0                       # Total Idle time Per DRAM Rank (Tick)
system.memsubsystem4.mem_ctrls.dram.rank1.pwrStateTime::IDLE   5218708500                       # Time in different power states (Tick)
system.memsubsystem4.mem_ctrls.dram.rank1.pwrStateTime::REF            0                       # Time in different power states (Tick)
system.memsubsystem4.mem_ctrls.dram.rank1.pwrStateTime::SREF            0                       # Time in different power states (Tick)
system.memsubsystem4.mem_ctrls.dram.rank1.pwrStateTime::PRE_PDN            0                       # Time in different power states (Tick)
system.memsubsystem4.mem_ctrls.dram.rank1.pwrStateTime::ACT            0                       # Time in different power states (Tick)
system.memsubsystem4.mem_ctrls.dram.rank1.pwrStateTime::ACT_PDN            0                       # Time in different power states (Tick)
system.memsubsystem4.mem_ctrls.power_state.pwrStateResidencyTicks::UNDEFINED   5218708500                       # Cumulative time (in ticks) in various power states (Tick)
system.memsubsystem4.xbar.transDist::ReadResp         2510                       # Transaction distribution (Count)
system.memsubsystem4.xbar.transDist::WritebackDirty         7825                       # Transaction distribution (Count)
system.memsubsystem4.xbar.transDist::WritebackClean           48                       # Transaction distribution (Count)
system.memsubsystem4.xbar.transDist::ReadExReq        14318                       # Transaction distribution (Count)
system.memsubsystem4.xbar.transDist::ReadExResp        14318                       # Transaction distribution (Count)
system.memsubsystem4.xbar.transDist::ReadSharedReq         2510                       # Transaction distribution (Count)
system.memsubsystem4.xbar.pktCount_system.memsubsystem4.bridge.mem_side_port::system.memsubsystem4.mem_ctrls.port        41529                       # Packet count per connected requestor and responder (Count)
system.memsubsystem4.xbar.pktCount_system.memsubsystem4.bridge.mem_side_port::total        41529                       # Packet count per connected requestor and responder (Count)
system.memsubsystem4.xbar.pktSize_system.memsubsystem4.bridge.mem_side_port::system.memsubsystem4.mem_ctrls.port      1580864                       # Cumulative packet size per connected requestor and responder (Byte)
system.memsubsystem4.xbar.pktSize_system.memsubsystem4.bridge.mem_side_port::total      1580864                       # Cumulative packet size per connected requestor and responder (Byte)
system.memsubsystem4.xbar.badaddr_responder.power_state.pwrStateResidencyTicks::UNDEFINED   5218708500                       # Cumulative time (in ticks) in various power states (Tick)
system.memsubsystem4.xbar.power_state.pwrStateResidencyTicks::UNDEFINED   5218708500                       # Cumulative time (in ticks) in various power states (Tick)
system.memsubsystem4.xbar_clk_domain.clock        10000                       # Clock period in ticks (Tick)
system.memsubsystem4.xbar_clk_domain.voltage_domain.voltage            1                       # Voltage in Volts (Volt)
system.pc.bad_addr.power_state.pwrStateResidencyTicks::UNDEFINED   5218708500                       # Cumulative time (in ticks) in various power states (Tick)
system.pc.com_1.power_state.pwrStateResidencyTicks::UNDEFINED   5218708500                       # Cumulative time (in ticks) in various power states (Tick)
system.pc.default_bus.power_state.pwrStateResidencyTicks::UNDEFINED   5218708500                       # Cumulative time (in ticks) in various power states (Tick)
system.pc.empty_isa.power_state.pwrStateResidencyTicks::UNDEFINED   5218708500                       # Cumulative time (in ticks) in various power states (Tick)
system.pc.fake_com_2.power_state.pwrStateResidencyTicks::UNDEFINED   5218708500                       # Cumulative time (in ticks) in various power states (Tick)
system.pc.fake_com_3.power_state.pwrStateResidencyTicks::UNDEFINED   5218708500                       # Cumulative time (in ticks) in various power states (Tick)
system.pc.fake_com_4.power_state.pwrStateResidencyTicks::UNDEFINED   5218708500                       # Cumulative time (in ticks) in various power states (Tick)
system.pc.fake_floppy.power_state.pwrStateResidencyTicks::UNDEFINED   5218708500                       # Cumulative time (in ticks) in various power states (Tick)
system.pc.pci_host.power_state.pwrStateResidencyTicks::UNDEFINED   5218708500                       # Cumulative time (in ticks) in various power states (Tick)
system.pc.south_bridge.cmos.power_state.pwrStateResidencyTicks::UNDEFINED   5218708500                       # Cumulative time (in ticks) in various power states (Tick)
system.pc.south_bridge.dma1.power_state.pwrStateResidencyTicks::UNDEFINED   5218708500                       # Cumulative time (in ticks) in various power states (Tick)
system.pc.south_bridge.ide.disks.IdeDisk.dmaReadFullPages            0                       # Number of full page size DMA reads (not PRD). (Count)
system.pc.south_bridge.ide.disks.IdeDisk.dmaReadBytes            0                       # Number of bytes transfered via DMA reads (not PRD). (Byte)
system.pc.south_bridge.ide.disks.IdeDisk.dmaReadTxs            0                       # Number of DMA read transactions (not PRD). (Count)
system.pc.south_bridge.ide.disks.IdeDisk.dmaWriteFullPages            0                       # Number of full page size DMA writes. (Count)
system.pc.south_bridge.ide.disks.IdeDisk.dmaWriteBytes            0                       # Number of bytes transfered via DMA writes. (Byte)
system.pc.south_bridge.ide.disks.IdeDisk.dmaWriteTxs            0                       # Number of DMA write transactions. (Count)
system.pc.south_bridge.ide.power_state.pwrStateResidencyTicks::UNDEFINED   5218708500                       # Cumulative time (in ticks) in various power states (Tick)
system.pc.south_bridge.io_apic.power_state.pwrStateResidencyTicks::UNDEFINED   5218708500                       # Cumulative time (in ticks) in various power states (Tick)
system.pc.south_bridge.keyboard.power_state.pwrStateResidencyTicks::UNDEFINED   5218708500                       # Cumulative time (in ticks) in various power states (Tick)
system.pc.south_bridge.pic1.power_state.pwrStateResidencyTicks::UNDEFINED   5218708500                       # Cumulative time (in ticks) in various power states (Tick)
system.pc.south_bridge.pic2.power_state.pwrStateResidencyTicks::UNDEFINED   5218708500                       # Cumulative time (in ticks) in various power states (Tick)
system.pc.south_bridge.pit.power_state.pwrStateResidencyTicks::UNDEFINED   5218708500                       # Cumulative time (in ticks) in various power states (Tick)
system.pc.south_bridge.speaker.power_state.pwrStateResidencyTicks::UNDEFINED   5218708500                       # Cumulative time (in ticks) in various power states (Tick)
system.tol2bus.transDist::ReadReq               64444                       # Transaction distribution (Count)
system.tol2bus.transDist::ReadResp              67905                       # Transaction distribution (Count)
system.tol2bus.transDist::WriteReq               2202                       # Transaction distribution (Count)
system.tol2bus.transDist::WriteResp              2202                       # Transaction distribution (Count)
system.tol2bus.transDist::WritebackDirty        22288                       # Transaction distribution (Count)
system.tol2bus.transDist::WritebackClean         2573                       # Transaction distribution (Count)
system.tol2bus.transDist::UpgradeReq              140                       # Transaction distribution (Count)
system.tol2bus.transDist::UpgradeResp             140                       # Transaction distribution (Count)
system.tol2bus.transDist::ReadExReq             22360                       # Transaction distribution (Count)
system.tol2bus.transDist::ReadExResp            22360                       # Transaction distribution (Count)
system.tol2bus.transDist::ReadCleanReq           1316                       # Transaction distribution (Count)
system.tol2bus.transDist::ReadSharedReq          2145                       # Transaction distribution (Count)
system.tol2bus.pktCount_system.cpu.icache.mem_side_port::system.l2.cpu_side_port         3500                       # Packet count per connected requestor and responder (Count)
system.tol2bus.pktCount_system.cpu.dcache.mem_side_port::system.l2.cpu_side_port       204457                       # Packet count per connected requestor and responder (Count)
system.tol2bus.pktCount_system.cpu.mmu.itb.walker.port::system.l2.cpu_side_port          478                       # Packet count per connected requestor and responder (Count)
system.tol2bus.pktCount_system.cpu.mmu.dtb.walker.port::system.l2.cpu_side_port         1640                       # Packet count per connected requestor and responder (Count)
system.tol2bus.pktCount::total                 210075                       # Packet count per connected requestor and responder (Count)
system.tol2bus.pktSize_system.cpu.icache.mem_side_port::system.l2.cpu_side_port       139776                       # Cumulative packet size per connected requestor and responder (Byte)
system.tol2bus.pktSize_system.cpu.dcache.mem_side_port::system.l2.cpu_side_port      3194255                       # Cumulative packet size per connected requestor and responder (Byte)
system.tol2bus.pktSize_system.cpu.mmu.itb.walker.port::system.l2.cpu_side_port         1912                       # Cumulative packet size per connected requestor and responder (Byte)
system.tol2bus.pktSize_system.cpu.mmu.dtb.walker.port::system.l2.cpu_side_port         6560                       # Cumulative packet size per connected requestor and responder (Byte)
system.tol2bus.pktSize::total                 3342503                       # Cumulative packet size per connected requestor and responder (Byte)
system.tol2bus.snoops                            7920                       # Total snoops (Count)
system.tol2bus.snoopTraffic                    506880                       # Total snoop traffic (Byte)
system.tol2bus.snoopFanout::samples            100527                       # Request fanout histogram
system.tol2bus.snoopFanout::mean             0.002905                       # Request fanout histogram
system.tol2bus.snoopFanout::stdev            0.053817                       # Request fanout histogram
system.tol2bus.snoopFanout::underflows              0      0.00%      0.00% # Request fanout histogram
system.tol2bus.snoopFanout::0                  100235     99.71%     99.71% # Request fanout histogram
system.tol2bus.snoopFanout::1                     292      0.29%    100.00% # Request fanout histogram
system.tol2bus.snoopFanout::2                       0      0.00%    100.00% # Request fanout histogram
system.tol2bus.snoopFanout::overflows               0      0.00%    100.00% # Request fanout histogram
system.tol2bus.snoopFanout::min_value               0                       # Request fanout histogram
system.tol2bus.snoopFanout::max_value               1                       # Request fanout histogram
system.tol2bus.snoopFanout::total              100527                       # Request fanout histogram
system.tol2bus.power_state.pwrStateResidencyTicks::UNDEFINED   5218708500                       # Cumulative time (in ticks) in various power states (Tick)
system.tol2bus.snoop_filter.totRequests         51067                       # Total number of requests made to the snoop filter. (Count)
system.tol2bus.snoop_filter.hitSingleRequests        25246                       # Number of requests hitting in the snoop filter with a single holder of the requested data. (Count)
system.tol2bus.snoop_filter.hitMultiRequests            0                       # Number of requests hitting in the snoop filter with multiple (>1) holders of the requested data. (Count)
system.tol2bus.snoop_filter.totSnoops              47                       # Total number of snoops made to the snoop filter. (Count)
system.tol2bus.snoop_filter.hitSingleSnoops           47                       # Number of snoops hitting in the snoop filter with a single holder of the requested data. (Count)
system.tol2bus.snoop_filter.hitMultiSnoops            0                       # Number of snoops hitting in the snoop filter with multiple (>1) holders of the requested data. (Count)
system.voltage_domain.voltage                       1                       # Voltage in Volts (Volt)
system.workload.inst.arm                            0                       # number of arm instructions executed (Count)
system.workload.inst.quiesce                        0                       # number of quiesce instructions executed (Count)

---------- End Simulation Statistics   ----------
